data_image0
_chemical_formula_structural       Li16B32O56Li16B32O56Li16B32O56Li16B32O56Li16B32O56Li16B32O56Li16B32O56Li16B32O56Li16B32O56Li16B32O56Li16B32O56Li16B32O56Li16B32O56Li16B32O56Li16B32O56Li16B32O56Li16B32O56Li16B32O56Li16B32O56Li16B32O56Li16B32O56Li16B32O56Li16B32O56Li16B32O56Li16B32O56Li16B32O56Li16B32O56
_chemical_formula_sum              "Li432 B864 O1512"
_cell_length_a       28.376767042954146
_cell_length_b       28.37676094194573
_cell_length_c       34.07255764960041
_cell_angle_alpha    90.00014265481748
_cell_angle_beta     90.00002137562538
_cell_angle_gamma    90.00003057643833

_space_group_name_H-M_alt    "P 1"
_space_group_IT_number       1

loop_
  _space_group_symop_operation_xyz
  'x, y, z'

loop_
  _atom_site_type_symbol
  _atom_site_label
  _atom_site_symmetry_multiplicity
  _atom_site_fract_x
  _atom_site_fract_y
  _atom_site_fract_z
  _atom_site_occupancy
  Li  Li1       1.0  0.27267307402168856  0.22267505118986805  0.2767050036893479  1.0000
  Li  Li2       1.0  0.27732687305895215  0.2726757946396533  0.19337273707627603  1.0000
  Li  Li3       1.0  0.2226720577096226  0.2273236710741224  0.02670349242616866  1.0000
  Li  Li4       1.0  0.22732328009445157  0.27733043677844077  0.1100375068200727  1.0000
  Li  Li5       1.0  0.22732370598940965  0.0560044112154763  0.276701533635784  1.0000
  Li  Li6       1.0  0.2726763370507672  0.11066130460121251  0.11003953055044138  1.0000
  Li  Li7       1.0  0.27732605791975773  0.06065817393516395  0.02670605612776269  1.0000
  Li  Li8       1.0  0.22266898666247176  0.10601058798971398  0.19336934185200208  1.0000
  Li  Li9       1.0  0.10601037265875321  0.056004101738292456  0.11004154362043282  1.0000
  Li  Li10      1.0  0.11065770928373683  0.10600763941005503  0.026706205361771932  1.0000
  Li  Li11      1.0  0.05599908984649005  0.06065591819475505  0.1933687898467874  1.0000
  Li  Li12      1.0  0.06065768516025488  0.11066268582789328  0.27670112647470924  1.0000
  Li  Li13      1.0  0.06065739621267396  0.22267259747914608  0.11003451880046668  1.0000
  Li  Li14      1.0  0.10601078620795731  0.27732608889261473  0.2767061542730718  1.0000
  Li  Li15      1.0  0.11065811357342946  0.22732430208702573  0.193369708295082  1.0000
  Li  Li16      1.0  0.05600480255680768  0.27267758119403085  0.026702407227387735  1.0000
  B   B1        1.0  0.27698779459828415  0.30732264645895446  0.31760537734026956  1.0000
  B   B2        1.0  0.19267475193124642  0.2769873162152556  0.23427196615253285  1.0000
  B   B3        1.0  0.30732116047285374  0.22301967880615778  0.0676028731980788  1.0000
  B   B4        1.0  0.22301685876159422  0.19267719701153962  0.15093669085358447  1.0000
  B   B5        1.0  0.056349544636005465  0.3073226353054664  0.1509351939981822  1.0000
  B   B6        1.0  0.11031921583155978  0.19267748197311352  0.3176061199109253  1.0000
  B   B7        1.0  0.02600992081211502  0.22301284303114755  0.23427188805063118  1.0000
  B   B8        1.0  0.1406560839957898  0.2769805965702347  0.06760275013601529  1.0000
  B   B9        1.0  0.2051424335223993  0.3177562023199462  0.029025238100828146  1.0000
  B   B10       1.0  0.015576239624695329  0.0384769110975464  0.11235873400628393  1.0000
  B   B11       1.0  0.3177576740199919  0.29486069002922294  0.11235763419083189  1.0000
  B   B12       1.0  0.29485620024304177  0.18224037767644755  0.19569288143379493  1.0000
  B   B13       1.0  0.29485838487256066  0.15109359674318937  0.029025868435175337  1.0000
  B   B14       1.0  0.038474669652051215  0.1822443661962801  0.029025923097859292  1.0000
  B   B15       1.0  0.18224289609875438  0.12818974631632435  0.1123591807306217  1.0000
  B   B16       1.0  0.15109246943346977  0.20513934072267187  0.1123580799830067  1.0000
  B   B17       1.0  0.11031866386193313  0.14065449199335245  0.15093878332499477  1.0000
  B   B18       1.0  0.026009805456277377  0.11032153517016274  0.06760697277988867  1.0000
  B   B19       1.0  0.14065335158173567  0.05635092207733839  0.23426903165454835  1.0000
  B   B20       1.0  0.05635138030211457  0.0260103822547753  0.317603084516981  1.0000
  B   B21       1.0  0.22301756307151707  0.14065601568268402  0.31760352939014364  1.0000
  B   B22       1.0  0.27698627651822866  0.026011700304675516  0.15093962810311706  1.0000
  B   B23       1.0  0.19267673940321706  0.05634498366722527  0.06760683543811108  1.0000
  B   B24       1.0  0.3073205191734092  0.11031556026521284  0.23427008542774552  1.0000
  B   B25       1.0  0.03847276693971618  0.15109035483006178  0.19569054038552644  1.0000
  B   B26       1.0  0.1822418185109527  0.20514218298301626  0.2790258929464386  1.0000
  B   B27       1.0  0.15109234001140492  0.12819159687286294  0.2790260711827108  1.0000
  B   B28       1.0  0.1281920373367949  0.015572592219273767  0.029025885799167303  1.0000
  B   B29       1.0  0.12819017417894601  0.31776004519086504  0.19569012867415342  1.0000
  B   B30       1.0  0.20514060678886192  0.015575873713664425  0.1956911454581349  1.0000
  B   B31       1.0  0.015576819500540934  0.2948574506424791  0.27902435069241865  1.0000
  B   B32       1.0  0.31776067635189  0.03847447720821817  0.27902489171660927  1.0000
  O   O1        1.0  0.2422043560033892  0.2913510265691717  0.008587091529862373  1.0000
  O   O2        1.0  0.04198291775300496  0.075538302548417  0.09192148343550326  1.0000
  O   O3        1.0  0.2913487419426064  0.257801410950601  0.09191940456813627  1.0000
  O   O4        1.0  0.25779559809943425  0.2086491195326743  0.1752564311761783  1.0000
  O   O5        1.0  0.09113118561552677  0.2913508455099498  0.17525190173565505  1.0000
  O   O6        1.0  0.07553659913825955  0.20864956235822443  0.008588254753158886  1.0000
  O   O7        1.0  0.20864902244519531  0.0911280018683467  0.09192200859160571  1.0000
  O   O8        1.0  0.12468481859827536  0.24219944045408492  0.09192021377738327  1.0000
  O   O9        1.0  0.14120028054602132  0.10824106573125758  0.13499181554503378  1.0000
  O   O10       1.0  0.05842295792798864  0.14120257955139343  0.051659094845891707  1.0000
  O   O11       1.0  0.2749087036098781  0.19213823332825303  0.051654399275178495  1.0000
  O   O12       1.0  0.19213723819240702  0.22508975859715508  0.1349864458792195  1.0000
  O   O13       1.0  0.025469258166238774  0.2749100409377513  0.1349856033957321  1.0000
  O   O14       1.0  0.14119964220648906  0.22509099738314134  0.3016580017346772  1.0000
  O   O15       1.0  0.22509052164180862  0.025465217006919613  0.05165799026604356  1.0000
  O   O16       1.0  0.27490682045057013  0.14119539833521355  0.21832158320145653  1.0000
  O   O17       1.0  0.28105744812939454  0.021733356245520186  0.3093571210250741  1.0000
  O   O18       1.0  0.1449308013721548  0.2810565411537577  0.22602265450448236  1.0000
  O   O19       1.0  0.021731579993683116  0.21895314064578308  0.0593525780241131  1.0000
  O   O20       1.0  0.2189506118024477  0.1449332794027668  0.1426865182144719  1.0000
  O   O21       1.0  0.05228312514130989  0.021733284527452004  0.14268597776014308  1.0000
  O   O22       1.0  0.28105478199640865  0.31160114316275517  0.14269013639509529  1.0000
  O   O23       1.0  0.3115988887112381  0.2189443286409569  0.22602407328066818  1.0000
  O   O24       1.0  0.18839980348997848  0.2810480594538628  0.05935256403140514  1.0000
  O   O25       1.0  0.9999974622818252  0.16666689110104918  0.17144564058726106  1.0000
  O   O26       1.0  0.9999983935988314  3.4249450974370267e-06  0.08811226395573277  1.0000
  O   O27       1.0  7.942271091943407e-07  0.1666667512966071  0.004779910442259715  1.0000
  O   O28       1.0  0.16666621595225056  0.16666328369744757  0.088112614784671  1.0000
  O   O29       1.0  0.07553345472812052  0.12468329583409879  0.17525241774312855  1.0000
  O   O30       1.0  0.20864614089300892  0.2422049721037884  0.2585882131513692  1.0000
  O   O31       1.0  0.1246837106962522  0.09113106628617614  0.25858858540284757  1.0000
  O   O32       1.0  0.09113183685933589  0.04198091291021935  0.008588358983564895  1.0000
  O   O33       1.0  0.2577983922560523  0.1246851708152254  0.008588202499175007  1.0000
  O   O34       1.0  0.24220185127025265  0.04198283062710462  0.17525393520888238  1.0000
  O   O35       1.0  0.04198315198434771  0.2577959433554118  0.25858667159336085  1.0000
  O   O36       1.0  0.2913509535368661  0.07553359953626476  0.2585874500121708  1.0000
  O   O37       1.0  0.307866866705509  0.27490880411329055  0.3016556047364897  1.0000
  O   O38       1.0  0.22508927575498971  0.30786596374408237  0.2183225845545087  1.0000
  O   O39       1.0  0.10823999954230315  0.025472555272133626  0.2183176371437841  1.0000
  O   O40       1.0  0.025472971880502616  0.05842412401267708  0.301652517116801  1.0000
  O   O41       1.0  0.19213794686261282  0.10824245111979891  0.30165397501279734  1.0000
  O   O42       1.0  0.3078670067416955  0.05842535809897934  0.134991804663583  1.0000
  O   O43       1.0  0.058422830100543624  0.1921331911905021  0.21832155896496316  1.0000
  O   O44       1.0  0.10824266378835858  0.307860669490172  0.05165390110119334  1.0000
  O   O45       1.0  0.11438782483271207  0.18839837067881693  0.14268922633778758  1.0000
  O   O46       1.0  0.3115991547757693  0.1143893635117971  0.05935754700744762  1.0000
  O   O47       1.0  0.1883973627335634  0.05228240326068292  0.2260197279070569  1.0000
  O   O48       1.0  0.05228325313201748  0.3115997457681073  0.30935332962839174  1.0000
  O   O49       1.0  0.21895001376287254  0.18839991993636324  0.30935338897129716  1.0000
  O   O50       1.0  0.11438799176608212  0.1449334069162545  0.30935717733462903  1.0000
  O   O51       1.0  0.14493270138302414  0.052276203431308524  0.059357991950468494  1.0000
  O   O52       1.0  0.021730797872736532  0.11438399418269127  0.22601952959522953  1.0000
  O   O53       1.0  0.16666779875540455  0.9999996974087344  0.004779603682633247  1.0000
  O   O54       1.0  0.16666561004774208  0.16666741585214284  0.25478003944426186  1.0000
  O   O55       1.0  0.16666667282621653  0.9999992985970371  0.17144465749633842  1.0000
  O   O56       1.0  7.902763236153061e-07  0.9999988389400678  0.25477853678698087  1.0000
  Li  Li17      1.0  0.27267307402168856  0.22267505118986805  0.6100383370226813  1.0000
  Li  Li18      1.0  0.27732687305895215  0.2726757946396533  0.5267060704096094  1.0000
  Li  Li19      1.0  0.22267205770962256  0.2273236710741224  0.360036825759502  1.0000
  Li  Li20      1.0  0.22732328009445157  0.27733043677844077  0.44337084015340605  1.0000
  Li  Li21      1.0  0.22732370598940965  0.0560044112154763  0.6100348669691174  1.0000
  Li  Li22      1.0  0.2726763370507672  0.11066130460121251  0.4433728638837747  1.0000
  Li  Li23      1.0  0.27732605791975773  0.06065817393516394  0.36003938946109604  1.0000
  Li  Li24      1.0  0.22266898666247176  0.10601058798971397  0.5267026751853354  1.0000
  Li  Li25      1.0  0.10601037265875321  0.056004101738292456  0.44337487695376615  1.0000
  Li  Li26      1.0  0.11065770928373683  0.10600763941005502  0.36003953869510524  1.0000
  Li  Li27      1.0  0.05599908984649005  0.06065591819475505  0.5267021231801207  1.0000
  Li  Li28      1.0  0.06065768516025488  0.11066268582789328  0.6100344598080426  1.0000
  Li  Li29      1.0  0.06065739621267396  0.2226725974791461  0.4433678521338  1.0000
  Li  Li30      1.0  0.10601078620795731  0.27732608889261473  0.6100394876064051  1.0000
  Li  Li31      1.0  0.11065811357342946  0.22732430208702573  0.5267030416284153  1.0000
  Li  Li32      1.0  0.05600480255680768  0.27267758119403085  0.3600357405607211  1.0000
  B   B33       1.0  0.2769877945982841  0.3073226464589545  0.6509387106736029  1.0000
  B   B34       1.0  0.1926747519312464  0.2769873162152556  0.5676052994858662  1.0000
  B   B35       1.0  0.30732116047285374  0.22301967880615778  0.40093620653141215  1.0000
  B   B36       1.0  0.2230168587615942  0.19267719701153962  0.48427002418691784  1.0000
  B   B37       1.0  0.056349544636005465  0.3073226353054664  0.48426852733151554  1.0000
  B   B38       1.0  0.11031921583155978  0.19267748197311355  0.6509394532442586  1.0000
  B   B39       1.0  0.02600992081211502  0.22301284303114755  0.5676052213839644  1.0000
  B   B40       1.0  0.1406560839957898  0.2769805965702347  0.40093608346934867  1.0000
  B   B41       1.0  0.20514243352239928  0.3177562023199462  0.3623585714341615  1.0000
  B   B42       1.0  0.015576239624695329  0.03847691109754639  0.4456920673396173  1.0000
  B   B43       1.0  0.3177576740199919  0.29486069002922294  0.4456909675241652  1.0000
  B   B44       1.0  0.2948562002430418  0.18224037767644755  0.5290262147671282  1.0000
  B   B45       1.0  0.29485838487256066  0.15109359674318937  0.3623592017685087  1.0000
  B   B46       1.0  0.038474669652051215  0.1822443661962801  0.3623592564311926  1.0000
  B   B47       1.0  0.18224289609875435  0.12818974631632435  0.4456925140639551  1.0000
  B   B48       1.0  0.15109246943346977  0.20513934072267187  0.44569141331634005  1.0000
  B   B49       1.0  0.11031866386193313  0.14065449199335242  0.4842721166583281  1.0000
  B   B50       1.0  0.026009805456277377  0.11032153517016273  0.400940306113222  1.0000
  B   B51       1.0  0.14065335158173567  0.05635092207733839  0.5676023649878816  1.0000
  B   B52       1.0  0.05635138030211457  0.0260103822547753  0.6509364178503143  1.0000
  B   B53       1.0  0.22301756307151707  0.14065601568268404  0.6509368627234771  1.0000
  B   B54       1.0  0.27698627651822866  0.026011700304675513  0.48427296143645043  1.0000
  B   B55       1.0  0.19267673940321706  0.05634498366722526  0.40094016877144445  1.0000
  B   B56       1.0  0.3073205191734092  0.11031556026521284  0.5676034187610789  1.0000
  B   B57       1.0  0.03847276693971618  0.15109035483006178  0.5290238737188598  1.0000
  B   B58       1.0  0.1822418185109527  0.20514218298301626  0.6123592262797719  1.0000
  B   B59       1.0  0.15109234001140492  0.12819159687286294  0.6123594045160441  1.0000
  B   B60       1.0  0.1281920373367949  0.015572592219273767  0.36235921913250063  1.0000
  B   B61       1.0  0.12819017417894601  0.31776004519086515  0.5290234620074867  1.0000
  B   B62       1.0  0.2051406067888619  0.015575873713664425  0.5290244787914683  1.0000
  B   B63       1.0  0.015576819500540936  0.29485745064247915  0.6123576840257521  1.0000
  B   B64       1.0  0.3177606763518901  0.038474477208218165  0.6123582250499426  1.0000
  O   O57       1.0  0.2422043560033892  0.2913510265691717  0.34192042486319574  1.0000
  O   O58       1.0  0.04198291775300496  0.07553830254841698  0.4252548167688366  1.0000
  O   O59       1.0  0.2913487419426064  0.257801410950601  0.4252527379014696  1.0000
  O   O60       1.0  0.25779559809943425  0.20864911953267432  0.5085897645095117  1.0000
  O   O61       1.0  0.09113118561552677  0.2913508455099498  0.5085852350689883  1.0000
  O   O62       1.0  0.07553659913825955  0.20864956235822443  0.34192158808649226  1.0000
  O   O63       1.0  0.2086490224451953  0.09112800186834671  0.4252553419249391  1.0000
  O   O64       1.0  0.12468481859827538  0.24219944045408492  0.4252535471107166  1.0000
  O   O65       1.0  0.1412002805460213  0.1082410657312576  0.46832514887836707  1.0000
  O   O66       1.0  0.05842295792798864  0.14120257955139343  0.3849924281792251  1.0000
  O   O67       1.0  0.27490870360987807  0.19213823332825306  0.3849877326085118  1.0000
  O   O68       1.0  0.192137238192407  0.22508975859715508  0.46831977921255286  1.0000
  O   O69       1.0  0.025469258166238774  0.27491004093775134  0.46831893672906544  1.0000
  O   O70       1.0  0.14119964220648903  0.22509099738314134  0.6349913350680106  1.0000
  O   O71       1.0  0.2250905216418086  0.025465217006919613  0.3849913235993769  1.0000
  O   O72       1.0  0.27490682045057013  0.1411953983352136  0.5516549165347899  1.0000
  O   O73       1.0  0.2810574481293945  0.02173335624552019  0.6426904543584074  1.0000
  O   O74       1.0  0.14493080137215475  0.2810565411537577  0.5593559878378157  1.0000
  O   O75       1.0  0.021731579993683116  0.2189531406457831  0.3926859113574464  1.0000
  O   O76       1.0  0.21895061180244768  0.14493327940276682  0.47601985154780524  1.0000
  O   O77       1.0  0.05228312514130989  0.021733284527452  0.4760193110934764  1.0000
  O   O78       1.0  0.28105478199640865  0.3116011431627552  0.47602346972842857  1.0000
  O   O79       1.0  0.3115988887112381  0.2189443286409569  0.5593574066140015  1.0000
  O   O80       1.0  0.18839980348997848  0.2810480594538628  0.39268589736473847  1.0000
  O   O81       1.0  0.9999974622818252  0.16666689110104918  0.5047789739205945  1.0000
  O   O82       1.0  0.9999983935988314  3.424945097437026e-06  0.4214455972890661  1.0000
  O   O83       1.0  7.942271091943407e-07  0.1666667512966071  0.33811324377559304  1.0000
  O   O84       1.0  0.16666621595225053  0.1666632836974476  0.42144594811800434  1.0000
  O   O85       1.0  0.07553345472812052  0.12468329583409878  0.5085857510764619  1.0000
  O   O86       1.0  0.2086461408930089  0.2422049721037884  0.5919215464847025  1.0000
  O   O87       1.0  0.1246837106962522  0.09113106628617614  0.5919219187361808  1.0000
  O   O88       1.0  0.09113183685933589  0.04198091291021935  0.34192169231689823  1.0000
  O   O89       1.0  0.2577983922560523  0.1246851708152254  0.34192153583250834  1.0000
  O   O90       1.0  0.24220185127025265  0.04198283062710462  0.5085872685422157  1.0000
  O   O91       1.0  0.04198315198434771  0.2577959433554118  0.5919200049266942  1.0000
  O   O92       1.0  0.2913509535368661  0.07553359953626476  0.5919207833455041  1.0000
  O   O93       1.0  0.30786686670550906  0.2749088041132906  0.6349889380698232  1.0000
  O   O94       1.0  0.2250892757549897  0.30786596374408237  0.5516559178878421  1.0000
  O   O95       1.0  0.10823999954230315  0.025472555272133632  0.5516509704771174  1.0000
  O   O96       1.0  0.025472971880502616  0.05842412401267708  0.6349858504501343  1.0000
  O   O97       1.0  0.1921379468626128  0.10824245111979891  0.6349873083461306  1.0000
  O   O98       1.0  0.30786700674169554  0.05842535809897934  0.46832513799691633  1.0000
  O   O99       1.0  0.058422830100543624  0.19213319119050215  0.5516548922982966  1.0000
  O   O100      1.0  0.10824266378835858  0.30786066949017205  0.38498723443452665  1.0000
  O   O101      1.0  0.11438782483271207  0.18839837067881693  0.4760225596711209  1.0000
  O   O102      1.0  0.3115991547757693  0.1143893635117971  0.392690880340781  1.0000
  O   O103      1.0  0.1883973627335634  0.05228240326068292  0.5593530612403902  1.0000
  O   O104      1.0  0.05228325313201748  0.3115997457681073  0.642686662961725  1.0000
  O   O105      1.0  0.21895001376287251  0.18839991993636326  0.6426867223046305  1.0000
  O   O106      1.0  0.11438799176608212  0.1449334069162545  0.6426905106679625  1.0000
  O   O107      1.0  0.1449327013830241  0.052276203431308524  0.3926913252838018  1.0000
  O   O108      1.0  0.021730797872736532  0.11438399418269127  0.5593528629285629  1.0000
  O   O109      1.0  0.16666779875540455  0.9999996974087344  0.3381129370159666  1.0000
  O   O110      1.0  0.16666561004774205  0.16666741585214284  0.5881133727775951  1.0000
  O   O111      1.0  0.1666666728262165  0.9999992985970371  0.5047779908296718  1.0000
  O   O112      1.0  7.902763236153062e-07  0.9999988389400678  0.5881118701203143  1.0000
  Li  Li33      1.0  0.27267307402168856  0.22267505118986802  0.9433716703560145  1.0000
  Li  Li34      1.0  0.27732687305895215  0.2726757946396533  0.8600394037429426  1.0000
  Li  Li35      1.0  0.2226720577096226  0.22732367107412238  0.6933701590928354  1.0000
  Li  Li36      1.0  0.22732328009445157  0.27733043677844077  0.7767041734867394  1.0000
  Li  Li37      1.0  0.22732370598940965  0.05600441121547631  0.9433682003024506  1.0000
  Li  Li38      1.0  0.2726763370507672  0.1106613046012125  0.7767061972171081  1.0000
  Li  Li39      1.0  0.27732605791975773  0.06065817393516395  0.6933727227944293  1.0000
  Li  Li40      1.0  0.22266898666247176  0.10601058798971397  0.8600360085186688  1.0000
  Li  Li41      1.0  0.10601037265875321  0.05600410173829246  0.7767082102870996  1.0000
  Li  Li42      1.0  0.11065770928373683  0.10600763941005502  0.6933728720284386  1.0000
  Li  Li43      1.0  0.05599908984649005  0.06065591819475505  0.860035456513454  1.0000
  Li  Li44      1.0  0.06065768516025488  0.11066268582789328  0.943367793141376  1.0000
  Li  Li45      1.0  0.06065739621267396  0.22267259747914608  0.7767011854671334  1.0000
  Li  Li46      1.0  0.10601078620795731  0.2773260888926148  0.9433728209397384  1.0000
  Li  Li47      1.0  0.11065811357342946  0.2273243020870257  0.8600363749617487  1.0000
  Li  Li48      1.0  0.05600480255680768  0.27267758119403085  0.6933690738940544  1.0000
  B   B65       1.0  0.27698779459828415  0.3073226464589546  0.984272044006936  1.0000
  B   B66       1.0  0.19267475193124642  0.2769873162152556  0.9009386328191995  1.0000
  B   B67       1.0  0.3073211604728537  0.22301967880615778  0.7342695398647455  1.0000
  B   B68       1.0  0.22301685876159422  0.1926771970115396  0.8176033575202512  1.0000
  B   B69       1.0  0.056349544636005465  0.30732263530546644  0.8176018606648487  1.0000
  B   B70       1.0  0.11031921583155978  0.19267748197311352  0.984272786577592  1.0000
  B   B71       1.0  0.02600992081211502  0.22301284303114757  0.9009385547172979  1.0000
  B   B72       1.0  0.1406560839957898  0.2769805965702347  0.734269416802682  1.0000
  B   B73       1.0  0.2051424335223993  0.3177562023199462  0.6956919047674948  1.0000
  B   B74       1.0  0.01557623962469533  0.03847691109754639  0.7790254006729506  1.0000
  B   B75       1.0  0.3177576740199919  0.29486069002922294  0.7790243008574985  1.0000
  B   B76       1.0  0.29485620024304177  0.18224037767644752  0.8623595481004616  1.0000
  B   B77       1.0  0.2948583848725606  0.15109359674318934  0.695692535101842  1.0000
  B   B78       1.0  0.038474669652051215  0.18224436619628007  0.6956925897645261  1.0000
  B   B79       1.0  0.18224289609875438  0.12818974631632435  0.7790258473972884  1.0000
  B   B80       1.0  0.15109246943346977  0.20513934072267184  0.7790247466496735  1.0000
  B   B81       1.0  0.11031866386193313  0.14065449199335245  0.8176054499916615  1.0000
  B   B82       1.0  0.026009805456277377  0.11032153517016274  0.7342736394465553  1.0000
  B   B83       1.0  0.14065335158173567  0.0563509220773384  0.900935698321215  1.0000
  B   B84       1.0  0.05635138030211457  0.0260103822547753  0.9842697511836476  1.0000
  B   B85       1.0  0.22301756307151707  0.14065601568268402  0.9842701960568104  1.0000
  B   B86       1.0  0.27698627651822866  0.026011700304675513  0.8176062947697836  1.0000
  B   B87       1.0  0.19267673940321706  0.05634498366722527  0.7342735021047778  1.0000
  B   B88       1.0  0.3073205191734092  0.11031556026521284  0.9009367520944122  1.0000
  B   B89       1.0  0.03847276693971618  0.1510903548300618  0.8623572070521932  1.0000
  B   B90       1.0  0.1822418185109527  0.20514218298301626  0.9456925596131053  1.0000
  B   B91       1.0  0.15109234001140492  0.12819159687286294  0.9456927378493774  1.0000
  B   B92       1.0  0.1281920373367949  0.015572592219273767  0.695692552465834  1.0000
  B   B93       1.0  0.12819017417894601  0.31776004519086515  0.8623567953408201  1.0000
  B   B94       1.0  0.20514060678886192  0.015575873713664425  0.8623578121248017  1.0000
  B   B95       1.0  0.015576819500540936  0.2948574506424792  0.9456910173590855  1.0000
  B   B96       1.0  0.31776067635189  0.03847447720821817  0.945691558383276  1.0000
  O   O113      1.0  0.2422043560033892  0.2913510265691717  0.6752537581965291  1.0000
  O   O114      1.0  0.04198291775300496  0.075538302548417  0.75858815010217  1.0000
  O   O115      1.0  0.29134874194260635  0.257801410950601  0.7585860712348029  1.0000
  O   O116      1.0  0.25779559809943425  0.2086491195326743  0.841923097842845  1.0000
  O   O117      1.0  0.09113118561552677  0.2913508455099498  0.8419185684023218  1.0000
  O   O118      1.0  0.07553659913825955  0.20864956235822443  0.6752549214198256  1.0000
  O   O119      1.0  0.20864902244519531  0.0911280018683467  0.7585886752582724  1.0000
  O   O120      1.0  0.12468481859827538  0.24219944045408492  0.7585868804440499  1.0000
  O   O121      1.0  0.14120028054602132  0.10824106573125758  0.8016584822117006  1.0000
  O   O122      1.0  0.05842295792798864  0.1412025795513934  0.7183257615125584  1.0000
  O   O123      1.0  0.2749087036098781  0.19213823332825303  0.7183210659418452  1.0000
  O   O124      1.0  0.19213723819240702  0.22508975859715502  0.8016531125458861  1.0000
  O   O125      1.0  0.025469258166238774  0.2749100409377513  0.8016522700623988  1.0000
  O   O126      1.0  0.14119964220648906  0.22509099738314134  0.9683246684013439  1.0000
  O   O127      1.0  0.22509052164180862  0.025465217006919613  0.7183246569327103  1.0000
  O   O128      1.0  0.27490682045057013  0.14119539833521358  0.8849882498681232  1.0000
  O   O129      1.0  0.28105744812939454  0.021733356245520183  0.9760237876917409  1.0000
  O   O130      1.0  0.1449308013721548  0.2810565411537577  0.8926893211711491  1.0000
  O   O131      1.0  0.021731579993683116  0.2189531406457831  0.7260192446907798  1.0000
  O   O132      1.0  0.2189506118024477  0.1449332794027668  0.8093531848811385  1.0000
  O   O133      1.0  0.05228312514130989  0.021733284527452  0.8093526444268099  1.0000
  O   O134      1.0  0.28105478199640865  0.3116011431627552  0.809356803061762  1.0000
  O   O135      1.0  0.31159888871123803  0.2189443286409569  0.8926907399473348  1.0000
  O   O136      1.0  0.18839980348997848  0.2810480594538628  0.7260192306980718  1.0000
  O   O137      1.0  0.9999974622818252  0.1666668911010492  0.8381123072539277  1.0000
  O   O138      1.0  0.9999983935988314  3.424945097437026e-06  0.7547789306223995  1.0000
  O   O139      1.0  7.942271091943407e-07  0.16666675129660713  0.6714465771089264  1.0000
  O   O140      1.0  0.16666621595225056  0.16666328369744757  0.7547792814513378  1.0000
  O   O141      1.0  0.07553345472812052  0.12468329583409879  0.8419190844097952  1.0000
  O   O142      1.0  0.20864614089300892  0.2422049721037884  0.9252548798180359  1.0000
  O   O143      1.0  0.1246837106962522  0.09113106628617614  0.9252552520695143  1.0000
  O   O144      1.0  0.09113183685933589  0.04198091291021936  0.6752550256502317  1.0000
  O   O145      1.0  0.2577983922560523  0.1246851708152254  0.6752548691658417  1.0000
  O   O146      1.0  0.24220185127025265  0.041982830627104624  0.8419206018755491  1.0000
  O   O147      1.0  0.04198315198434771  0.2577959433554118  0.9252533382600275  1.0000
  O   O148      1.0  0.291350953536866  0.07553359953626476  0.9252541166788375  1.0000
  O   O149      1.0  0.307866866705509  0.27490880411329055  0.9683222714031564  1.0000
  O   O150      1.0  0.22508927575498971  0.3078659637440824  0.8849892512211753  1.0000
  O   O151      1.0  0.10823999954230315  0.025472555272133626  0.8849843038104509  1.0000
  O   O152      1.0  0.025472971880502616  0.05842412401267709  0.9683191837834676  1.0000
  O   O153      1.0  0.19213794686261282  0.10824245111979891  0.9683206416794641  1.0000
  O   O154      1.0  0.3078670067416955  0.05842535809897934  0.8016584713302497  1.0000
  O   O155      1.0  0.058422830100543624  0.1921331911905021  0.8849882256316298  1.0000
  O   O156      1.0  0.10824266378835858  0.30786066949017205  0.7183205677678601  1.0000
  O   O157      1.0  0.11438782483271207  0.1883983706788169  0.8093558930044542  1.0000
  O   O158      1.0  0.3115991547757693  0.11438936351179708  0.7260242136741143  1.0000
  O   O159      1.0  0.1883973627335634  0.052282403260682925  0.8926863945737236  1.0000
  O   O160      1.0  0.05228325313201748  0.3115997457681073  0.9760199962950584  1.0000
  O   O161      1.0  0.21895001376287254  0.18839991993636326  0.9760200556379639  1.0000
  O   O162      1.0  0.11438799176608212  0.14493340691625448  0.9760238440012957  1.0000
  O   O163      1.0  0.14493270138302414  0.05227620343130853  0.7260246586171353  1.0000
  O   O164      1.0  0.021730797872736532  0.11438399418269127  0.8926861962618962  1.0000
  O   O165      1.0  0.16666779875540455  0.9999996974087344  0.6714462703492999  1.0000
  O   O166      1.0  0.16666561004774208  0.16666741585214284  0.9214467061109286  1.0000
  O   O167      1.0  0.16666667282621653  0.9999992985970371  0.838111324163005  1.0000
  O   O168      1.0  7.902763236153061e-07  0.9999988389400678  0.9214452034536476  1.0000
  Li  Li49      1.0  0.27267307402168856  0.5560083845232013  0.2767050036893479  1.0000
  Li  Li50      1.0  0.27732687305895215  0.6060091279729866  0.193372737076276  1.0000
  Li  Li51      1.0  0.2226720577096226  0.5606570044074557  0.02670349242616866  1.0000
  Li  Li52      1.0  0.22732328009445157  0.6106637701117741  0.1100375068200727  1.0000
  Li  Li53      1.0  0.22732370598940965  0.3893377445488097  0.276701533635784  1.0000
  Li  Li54      1.0  0.2726763370507672  0.4439946379345459  0.11003953055044137  1.0000
  Li  Li55      1.0  0.27732605791975773  0.3939915072684973  0.02670605612776269  1.0000
  Li  Li56      1.0  0.22266898666247176  0.43934392132304734  0.19336934185200208  1.0000
  Li  Li57      1.0  0.10601037265875321  0.38933743507162577  0.11004154362043281  1.0000
  Li  Li58      1.0  0.11065770928373683  0.43934097274338835  0.026706205361771932  1.0000
  Li  Li59      1.0  0.05599908984649005  0.39398925152808845  0.1933687898467874  1.0000
  Li  Li60      1.0  0.060657685160254896  0.4439960191612266  0.2767011264747093  1.0000
  Li  Li61      1.0  0.06065739621267397  0.5560059308124794  0.11003451880046668  1.0000
  Li  Li62      1.0  0.10601078620795733  0.610659422225948  0.2767061542730719  1.0000
  Li  Li63      1.0  0.11065811357342946  0.5606576354203591  0.193369708295082  1.0000
  Li  Li64      1.0  0.05600480255680768  0.6060109145273641  0.026702407227387735  1.0000
  B   B97       1.0  0.27698779459828415  0.6406559797922878  0.31760537734026956  1.0000
  B   B98       1.0  0.19267475193124642  0.610320649548589  0.23427196615253285  1.0000
  B   B99       1.0  0.30732116047285374  0.5563530121394911  0.0676028731980788  1.0000
  B   B100      1.0  0.22301685876159422  0.5260105303448729  0.15093669085358447  1.0000
  B   B101      1.0  0.056349544636005465  0.6406559686387998  0.1509351939981822  1.0000
  B   B102      1.0  0.11031921583155978  0.5260108153064469  0.31760611991092536  1.0000
  B   B103      1.0  0.02600992081211502  0.5563461763644809  0.23427188805063118  1.0000
  B   B104      1.0  0.1406560839957898  0.6103139299035681  0.06760275013601529  1.0000
  B   B105      1.0  0.2051424335223993  0.6510895356532796  0.029025238100828146  1.0000
  B   B106      1.0  0.015576239624695329  0.37181024443087973  0.11235873400628392  1.0000
  B   B107      1.0  0.3177576740199919  0.6281940233625563  0.11235763419083189  1.0000
  B   B108      1.0  0.29485620024304177  0.5155737110097809  0.1956928814337949  1.0000
  B   B109      1.0  0.29485838487256066  0.4844269300765227  0.029025868435175337  1.0000
  B   B110      1.0  0.03847466965205123  0.5155776995296134  0.029025923097859292  1.0000
  B   B111      1.0  0.18224289609875438  0.4615230796496577  0.1123591807306217  1.0000
  B   B112      1.0  0.1510924694334698  0.5384726740560052  0.11235807998300669  1.0000
  B   B113      1.0  0.11031866386193313  0.4739878253266858  0.15093878332499477  1.0000
  B   B114      1.0  0.02600980545627738  0.44365486850349606  0.06760697277988867  1.0000
  B   B115      1.0  0.14065335158173567  0.38968425541067175  0.23426903165454832  1.0000
  B   B116      1.0  0.05635138030211457  0.3593437155881087  0.317603084516981  1.0000
  B   B117      1.0  0.22301756307151707  0.47398934901601736  0.31760352939014364  1.0000
  B   B118      1.0  0.27698627651822866  0.3593450336380089  0.15093962810311706  1.0000
  B   B119      1.0  0.19267673940321706  0.3896783170005586  0.06760683543811108  1.0000
  B   B120      1.0  0.3073205191734092  0.4436488935985462  0.23427008542774552  1.0000
  B   B121      1.0  0.03847276693971618  0.4844236881633951  0.19569054038552644  1.0000
  B   B122      1.0  0.1822418185109527  0.5384755163163495  0.2790258929464386  1.0000
  B   B123      1.0  0.15109234001140492  0.4615249302061963  0.27902607118271083  1.0000
  B   B124      1.0  0.1281920373367949  0.3489059255526071  0.029025885799167303  1.0000
  B   B125      1.0  0.12819017417894601  0.6510933785241986  0.19569012867415342  1.0000
  B   B126      1.0  0.20514060678886192  0.34890920704699785  0.1956911454581349  1.0000
  B   B127      1.0  0.015576819500540934  0.6281907839758124  0.27902435069241865  1.0000
  B   B128      1.0  0.31776067635189  0.3718078105415515  0.27902489171660927  1.0000
  O   O169      1.0  0.2422043560033892  0.6246843599025049  0.008587091529862373  1.0000
  O   O170      1.0  0.04198291775300496  0.40887163588175035  0.09192148343550326  1.0000
  O   O171      1.0  0.2913487419426064  0.5911347442839345  0.09191940456813627  1.0000
  O   O172      1.0  0.25779559809943425  0.5419824528660077  0.1752564311761783  1.0000
  O   O173      1.0  0.09113118561552677  0.6246841788432831  0.17525190173565505  1.0000
  O   O174      1.0  0.07553659913825955  0.5419828956915578  0.008588254753158886  1.0000
  O   O175      1.0  0.20864902244519531  0.42446133520168006  0.0919220085916057  1.0000
  O   O176      1.0  0.12468481859827538  0.5755327737874182  0.09192021377738326  1.0000
  O   O177      1.0  0.14120028054602132  0.44157439906459095  0.13499181554503376  1.0000
  O   O178      1.0  0.05842295792798864  0.4745359128847268  0.051659094845891707  1.0000
  O   O179      1.0  0.2749087036098781  0.5254715666615863  0.051654399275178495  1.0000
  O   O180      1.0  0.19213723819240702  0.5584230919304883  0.1349864458792195  1.0000
  O   O181      1.0  0.025469258166238774  0.6082433742710847  0.1349856033957321  1.0000
  O   O182      1.0  0.14119964220648906  0.5584243307164747  0.3016580017346772  1.0000
  O   O183      1.0  0.22509052164180862  0.358798550340253  0.05165799026604356  1.0000
  O   O184      1.0  0.27490682045057013  0.4745287316685469  0.21832158320145653  1.0000
  O   O185      1.0  0.28105744812939454  0.3550666895788535  0.3093571210250741  1.0000
  O   O186      1.0  0.1449308013721548  0.6143898744870913  0.22602265450448236  1.0000
  O   O187      1.0  0.02173157999368312  0.5522864739791165  0.0593525780241131  1.0000
  O   O188      1.0  0.2189506118024477  0.47826661273610016  0.1426865182144719  1.0000
  O   O189      1.0  0.05228312514130989  0.3550666178607853  0.14268597776014308  1.0000
  O   O190      1.0  0.28105478199640865  0.6449344764960886  0.14269013639509529  1.0000
  O   O191      1.0  0.3115988887112381  0.5522776619742903  0.22602407328066815  1.0000
  O   O192      1.0  0.18839980348997848  0.6143813927871962  0.05935256403140514  1.0000
  O   O193      1.0  0.9999974622818252  0.5000002244343824  0.17144564058726106  1.0000
  O   O194      1.0  0.9999983935988314  0.33333675827843084  0.08811226395573275  1.0000
  O   O195      1.0  7.942271091943407e-07  0.5000000846299405  0.004779910442259715  1.0000
  O   O196      1.0  0.16666621595225056  0.49999661703078097  0.088112614784671  1.0000
  O   O197      1.0  0.07553345472812052  0.4580166291674321  0.17525241774312855  1.0000
  O   O198      1.0  0.20864614089300892  0.5755383054371217  0.25858821315136926  1.0000
  O   O199      1.0  0.1246837106962522  0.42446439961950955  0.25858858540284757  1.0000
  O   O200      1.0  0.09113183685933589  0.37531424624355275  0.008588358983564895  1.0000
  O   O201      1.0  0.2577983922560523  0.45801850414855877  0.008588202499175007  1.0000
  O   O202      1.0  0.24220185127025265  0.375316163960438  0.17525393520888236  1.0000
  O   O203      1.0  0.04198315198434772  0.5911292766887452  0.2585866715933609  1.0000
  O   O204      1.0  0.2913509535368661  0.40886693286959813  0.2585874500121708  1.0000
  O   O205      1.0  0.307866866705509  0.6082421374466239  0.3016556047364898  1.0000
  O   O206      1.0  0.22508927575498971  0.6411992970774157  0.2183225845545087  1.0000
  O   O207      1.0  0.10823999954230315  0.35880588860546697  0.21831763714378408  1.0000
  O   O208      1.0  0.025472971880502623  0.39175745734601036  0.301652517116801  1.0000
  O   O209      1.0  0.19213794686261282  0.4415757844531322  0.30165397501279734  1.0000
  O   O210      1.0  0.3078670067416955  0.39175869143231273  0.134991804663583  1.0000
  O   O211      1.0  0.058422830100543624  0.5254665245238355  0.21832155896496314  1.0000
  O   O212      1.0  0.10824266378835858  0.6411940028235055  0.05165390110119335  1.0000
  O   O213      1.0  0.11438782483271207  0.5217317040121503  0.14268922633778758  1.0000
  O   O214      1.0  0.3115991547757693  0.44772269684513044  0.05935754700744762  1.0000
  O   O215      1.0  0.1883973627335634  0.38561573659401627  0.2260197279070569  1.0000
  O   O216      1.0  0.05228325313201748  0.6449330791014406  0.30935332962839174  1.0000
  O   O217      1.0  0.21895001376287254  0.5217332532696967  0.30935338897129716  1.0000
  O   O218      1.0  0.11438799176608212  0.4782667402495878  0.3093571773346291  1.0000
  O   O219      1.0  0.14493270138302414  0.3856095367646419  0.059357991950468494  1.0000
  O   O220      1.0  0.021730797872736532  0.44771732751602467  0.22601952959522953  1.0000
  O   O221      1.0  0.16666779875540455  0.3333330307420678  0.004779603682633246  1.0000
  O   O222      1.0  0.16666561004774208  0.5000007491854762  0.25478003944426186  1.0000
  O   O223      1.0  0.16666667282621656  0.33333263193037044  0.17144465749633842  1.0000
  O   O224      1.0  7.902763236153061e-07  0.3333321722734012  0.2547785367869809  1.0000
  Li  Li65      1.0  0.27267307402168856  0.5560083845232014  0.6100383370226813  1.0000
  Li  Li66      1.0  0.27732687305895215  0.6060091279729867  0.5267060704096094  1.0000
  Li  Li67      1.0  0.22267205770962256  0.5606570044074558  0.360036825759502  1.0000
  Li  Li68      1.0  0.22732328009445157  0.6106637701117741  0.44337084015340605  1.0000
  Li  Li69      1.0  0.22732370598940965  0.3893377445488097  0.6100348669691175  1.0000
  Li  Li70      1.0  0.2726763370507672  0.4439946379345459  0.4433728638837747  1.0000
  Li  Li71      1.0  0.27732605791975773  0.3939915072684973  0.3600393894610961  1.0000
  Li  Li72      1.0  0.22266898666247176  0.4393439213230473  0.5267026751853354  1.0000
  Li  Li73      1.0  0.10601037265875321  0.38933743507162577  0.44337487695376615  1.0000
  Li  Li74      1.0  0.11065770928373683  0.4393409727433884  0.3600395386951053  1.0000
  Li  Li75      1.0  0.05599908984649005  0.39398925152808845  0.5267021231801207  1.0000
  Li  Li76      1.0  0.060657685160254896  0.4439960191612266  0.6100344598080426  1.0000
  Li  Li77      1.0  0.06065739621267397  0.5560059308124794  0.44336785213380003  1.0000
  Li  Li78      1.0  0.10601078620795733  0.6106594222259483  0.6100394876064053  1.0000
  Li  Li79      1.0  0.11065811357342946  0.5606576354203591  0.5267030416284154  1.0000
  Li  Li80      1.0  0.05600480255680768  0.6060109145273642  0.3600357405607211  1.0000
  B   B129      1.0  0.2769877945982841  0.6406559797922878  0.6509387106736029  1.0000
  B   B130      1.0  0.1926747519312464  0.610320649548589  0.5676052994858662  1.0000
  B   B131      1.0  0.30732116047285374  0.5563530121394912  0.4009362065314122  1.0000
  B   B132      1.0  0.2230168587615942  0.526010530344873  0.48427002418691784  1.0000
  B   B133      1.0  0.056349544636005465  0.6406559686387998  0.48426852733151565  1.0000
  B   B134      1.0  0.11031921583155978  0.5260108153064469  0.6509394532442587  1.0000
  B   B135      1.0  0.02600992081211502  0.5563461763644809  0.5676052213839645  1.0000
  B   B136      1.0  0.1406560839957898  0.610313929903568  0.4009360834693486  1.0000
  B   B137      1.0  0.20514243352239928  0.6510895356532794  0.3623585714341615  1.0000
  B   B138      1.0  0.015576239624695329  0.37181024443087984  0.4456920673396173  1.0000
  B   B139      1.0  0.3177576740199919  0.6281940233625564  0.4456909675241652  1.0000
  B   B140      1.0  0.2948562002430418  0.5155737110097809  0.5290262147671283  1.0000
  B   B141      1.0  0.29485838487256066  0.4844269300765227  0.3623592017685087  1.0000
  B   B142      1.0  0.03847466965205123  0.5155776995296134  0.36235925643119266  1.0000
  B   B143      1.0  0.18224289609875435  0.4615230796496577  0.4456925140639551  1.0000
  B   B144      1.0  0.1510924694334698  0.5384726740560052  0.44569141331634005  1.0000
  B   B145      1.0  0.11031866386193313  0.4739878253266858  0.48427211665832814  1.0000
  B   B146      1.0  0.02600980545627738  0.44365486850349606  0.400940306113222  1.0000
  B   B147      1.0  0.14065335158173567  0.38968425541067175  0.5676023649878816  1.0000
  B   B148      1.0  0.05635138030211457  0.3593437155881087  0.6509364178503144  1.0000
  B   B149      1.0  0.22301756307151707  0.47398934901601736  0.6509368627234771  1.0000
  B   B150      1.0  0.27698627651822866  0.3593450336380089  0.48427296143645043  1.0000
  B   B151      1.0  0.19267673940321706  0.3896783170005586  0.40094016877144445  1.0000
  B   B152      1.0  0.3073205191734092  0.4436488935985462  0.5676034187610788  1.0000
  B   B153      1.0  0.03847276693971618  0.4844236881633952  0.5290238737188598  1.0000
  B   B154      1.0  0.1822418185109527  0.5384755163163496  0.6123592262797719  1.0000
  B   B155      1.0  0.15109234001140492  0.4615249302061963  0.6123594045160442  1.0000
  B   B156      1.0  0.1281920373367949  0.3489059255526071  0.3623592191325007  1.0000
  B   B157      1.0  0.12819017417894601  0.6510933785241986  0.5290234620074867  1.0000
  B   B158      1.0  0.2051406067888619  0.34890920704699785  0.5290244787914683  1.0000
  B   B159      1.0  0.015576819500540936  0.6281907839758126  0.6123576840257521  1.0000
  B   B160      1.0  0.3177606763518901  0.3718078105415516  0.6123582250499428  1.0000
  O   O225      1.0  0.2422043560033892  0.624684359902505  0.34192042486319574  1.0000
  O   O226      1.0  0.04198291775300496  0.4088716358817504  0.42525481676883664  1.0000
  O   O227      1.0  0.2913487419426064  0.5911347442839344  0.4252527379014696  1.0000
  O   O228      1.0  0.25779559809943425  0.5419824528660077  0.5085897645095117  1.0000
  O   O229      1.0  0.09113118561552677  0.624684178843283  0.5085852350689885  1.0000
  O   O230      1.0  0.07553659913825955  0.5419828956915578  0.34192158808649226  1.0000
  O   O231      1.0  0.2086490224451953  0.42446133520168006  0.4252553419249391  1.0000
  O   O232      1.0  0.12468481859827539  0.5755327737874183  0.4252535471107166  1.0000
  O   O233      1.0  0.1412002805460213  0.44157439906459095  0.4683251488783672  1.0000
  O   O234      1.0  0.05842295792798864  0.4745359128847268  0.384992428179225  1.0000
  O   O235      1.0  0.27490870360987807  0.5254715666615863  0.3849877326085118  1.0000
  O   O236      1.0  0.192137238192407  0.5584230919304883  0.4683197792125529  1.0000
  O   O237      1.0  0.025469258166238774  0.6082433742710847  0.4683189367290655  1.0000
  O   O238      1.0  0.14119964220648903  0.5584243307164747  0.6349913350680105  1.0000
  O   O239      1.0  0.2250905216418086  0.358798550340253  0.38499132359937693  1.0000
  O   O240      1.0  0.27490682045057013  0.474528731668547  0.5516549165347899  1.0000
  O   O241      1.0  0.2810574481293945  0.35506668957885357  0.6426904543584074  1.0000
  O   O242      1.0  0.14493080137215475  0.614389874487091  0.5593559878378158  1.0000
  O   O243      1.0  0.02173157999368312  0.5522864739791165  0.3926859113574465  1.0000
  O   O244      1.0  0.21895061180244768  0.47826661273610016  0.47601985154780535  1.0000
  O   O245      1.0  0.05228312514130989  0.3550666178607854  0.4760193110934765  1.0000
  O   O246      1.0  0.28105478199640865  0.6449344764960885  0.4760234697284287  1.0000
  O   O247      1.0  0.3115988887112381  0.5522776619742903  0.5593574066140015  1.0000
  O   O248      1.0  0.18839980348997848  0.6143813927871963  0.3926858973647385  1.0000
  O   O249      1.0  0.9999974622818252  0.5000002244343826  0.5047789739205945  1.0000
  O   O250      1.0  0.9999983935988314  0.33333675827843084  0.4214455972890661  1.0000
  O   O251      1.0  7.942271091943407e-07  0.5000000846299405  0.3381132437755931  1.0000
  O   O252      1.0  0.16666621595225053  0.49999661703078097  0.4214459481180044  1.0000
  O   O253      1.0  0.07553345472812052  0.4580166291674322  0.5085857510764619  1.0000
  O   O254      1.0  0.2086461408930089  0.5755383054371218  0.5919215464847026  1.0000
  O   O255      1.0  0.1246837106962522  0.42446439961950955  0.5919219187361808  1.0000
  O   O256      1.0  0.09113183685933589  0.37531424624355275  0.3419216923168983  1.0000
  O   O257      1.0  0.2577983922560523  0.45801850414855877  0.3419215358325084  1.0000
  O   O258      1.0  0.24220185127025265  0.375316163960438  0.5085872685422157  1.0000
  O   O259      1.0  0.04198315198434772  0.5911292766887452  0.5919200049266943  1.0000
  O   O260      1.0  0.2913509535368661  0.40886693286959813  0.5919207833455042  1.0000
  O   O261      1.0  0.30786686670550906  0.6082421374466239  0.634988938069823  1.0000
  O   O262      1.0  0.2250892757549897  0.6411992970774156  0.5516559178878421  1.0000
  O   O263      1.0  0.10823999954230315  0.35880588860546697  0.5516509704771175  1.0000
  O   O264      1.0  0.025472971880502623  0.39175745734601036  0.6349858504501344  1.0000
  O   O265      1.0  0.1921379468626128  0.4415757844531323  0.6349873083461307  1.0000
  O   O266      1.0  0.30786700674169554  0.39175869143231273  0.46832513799691633  1.0000
  O   O267      1.0  0.058422830100543624  0.5254665245238356  0.5516548922982965  1.0000
  O   O268      1.0  0.10824266378835858  0.6411940028235052  0.3849872344345267  1.0000
  O   O269      1.0  0.11438782483271207  0.5217317040121503  0.476022559671121  1.0000
  O   O270      1.0  0.3115991547757693  0.4477226968451305  0.392690880340781  1.0000
  O   O271      1.0  0.1883973627335634  0.38561573659401627  0.5593530612403902  1.0000
  O   O272      1.0  0.05228325313201748  0.6449330791014407  0.6426866629617252  1.0000
  O   O273      1.0  0.21895001376287251  0.5217332532696967  0.6426867223046305  1.0000
  O   O274      1.0  0.11438799176608212  0.4782667402495879  0.6426905106679625  1.0000
  O   O275      1.0  0.1449327013830241  0.3856095367646419  0.3926913252838019  1.0000
  O   O276      1.0  0.021730797872736532  0.44771732751602467  0.5593528629285629  1.0000
  O   O277      1.0  0.16666779875540455  0.3333330307420678  0.3381129370159666  1.0000
  O   O278      1.0  0.16666561004774205  0.5000007491854762  0.5881133727775952  1.0000
  O   O279      1.0  0.16666667282621653  0.33333263193037044  0.5047779908296718  1.0000
  O   O280      1.0  7.902763236153061e-07  0.3333321722734012  0.5881118701203143  1.0000
  Li  Li81      1.0  0.27267307402168856  0.5560083845232014  0.9433716703560145  1.0000
  Li  Li82      1.0  0.27732687305895215  0.6060091279729866  0.8600394037429426  1.0000
  Li  Li83      1.0  0.2226720577096226  0.5606570044074557  0.6933701590928353  1.0000
  Li  Li84      1.0  0.22732328009445157  0.6106637701117742  0.7767041734867393  1.0000
  Li  Li85      1.0  0.22732370598940965  0.3893377445488097  0.9433682003024508  1.0000
  Li  Li86      1.0  0.2726763370507672  0.4439946379345459  0.776706197217108  1.0000
  Li  Li87      1.0  0.27732605791975773  0.3939915072684973  0.6933727227944293  1.0000
  Li  Li88      1.0  0.22266898666247176  0.43934392132304734  0.8600360085186687  1.0000
  Li  Li89      1.0  0.10601037265875321  0.38933743507162577  0.7767082102870995  1.0000
  Li  Li90      1.0  0.11065770928373683  0.4393409727433884  0.6933728720284386  1.0000
  Li  Li91      1.0  0.05599908984649005  0.39398925152808845  0.860035456513454  1.0000
  Li  Li92      1.0  0.060657685160254896  0.4439960191612266  0.943367793141376  1.0000
  Li  Li93      1.0  0.06065739621267397  0.5560059308124794  0.7767011854671333  1.0000
  Li  Li94      1.0  0.10601078620795733  0.610659422225948  0.9433728209397385  1.0000
  Li  Li95      1.0  0.11065811357342946  0.5606576354203591  0.8600363749617487  1.0000
  Li  Li96      1.0  0.05600480255680768  0.6060109145273642  0.6933690738940543  1.0000
  B   B161      1.0  0.27698779459828415  0.6406559797922879  0.9842720440069362  1.0000
  B   B162      1.0  0.19267475193124642  0.610320649548589  0.9009386328191994  1.0000
  B   B163      1.0  0.3073211604728537  0.5563530121394912  0.7342695398647454  1.0000
  B   B164      1.0  0.22301685876159422  0.526010530344873  0.8176033575202512  1.0000
  B   B165      1.0  0.056349544636005465  0.6406559686387998  0.8176018606648489  1.0000
  B   B166      1.0  0.11031921583155978  0.5260108153064469  0.984272786577592  1.0000
  B   B167      1.0  0.026009920812115016  0.5563461763644809  0.9009385547172978  1.0000
  B   B168      1.0  0.1406560839957898  0.610313929903568  0.734269416802682  1.0000
  B   B169      1.0  0.2051424335223993  0.6510895356532798  0.6956919047674948  1.0000
  B   B170      1.0  0.01557623962469533  0.37181024443087984  0.7790254006729506  1.0000
  B   B171      1.0  0.3177576740199919  0.6281940233625564  0.7790243008574985  1.0000
  B   B172      1.0  0.29485620024304177  0.5155737110097809  0.8623595481004617  1.0000
  B   B173      1.0  0.2948583848725606  0.4844269300765228  0.695692535101842  1.0000
  B   B174      1.0  0.03847466965205123  0.5155776995296134  0.695692589764526  1.0000
  B   B175      1.0  0.18224289609875438  0.4615230796496577  0.7790258473972884  1.0000
  B   B176      1.0  0.1510924694334698  0.5384726740560052  0.7790247466496734  1.0000
  B   B177      1.0  0.11031866386193313  0.4739878253266858  0.8176054499916615  1.0000
  B   B178      1.0  0.026009805456277377  0.44365486850349606  0.7342736394465554  1.0000
  B   B179      1.0  0.14065335158173567  0.38968425541067175  0.900935698321215  1.0000
  B   B180      1.0  0.05635138030211457  0.3593437155881087  0.9842697511836478  1.0000
  B   B181      1.0  0.22301756307151707  0.47398934901601736  0.9842701960568104  1.0000
  B   B182      1.0  0.27698627651822866  0.3593450336380089  0.8176062947697837  1.0000
  B   B183      1.0  0.19267673940321706  0.3896783170005586  0.7342735021047778  1.0000
  B   B184      1.0  0.3073205191734092  0.4436488935985462  0.9009367520944122  1.0000
  B   B185      1.0  0.03847276693971618  0.48442368816339515  0.862357207052193  1.0000
  B   B186      1.0  0.1822418185109527  0.5384755163163496  0.9456925596131053  1.0000
  B   B187      1.0  0.15109234001140492  0.4615249302061963  0.9456927378493776  1.0000
  B   B188      1.0  0.1281920373367949  0.3489059255526071  0.695692552465834  1.0000
  B   B189      1.0  0.12819017417894601  0.6510933785241985  0.8623567953408201  1.0000
  B   B190      1.0  0.20514060678886192  0.34890920704699785  0.8623578121248014  1.0000
  B   B191      1.0  0.015576819500540936  0.6281907839758126  0.9456910173590855  1.0000
  B   B192      1.0  0.31776067635189  0.3718078105415516  0.945691558383276  1.0000
  O   O281      1.0  0.2422043560033892  0.624684359902505  0.6752537581965291  1.0000
  O   O282      1.0  0.04198291775300496  0.40887163588175035  0.75858815010217  1.0000
  O   O283      1.0  0.29134874194260635  0.5911347442839345  0.7585860712348028  1.0000
  O   O284      1.0  0.25779559809943425  0.5419824528660077  0.841923097842845  1.0000
  O   O285      1.0  0.09113118561552677  0.6246841788432831  0.8419185684023217  1.0000
  O   O286      1.0  0.07553659913825955  0.5419828956915578  0.6752549214198256  1.0000
  O   O287      1.0  0.20864902244519531  0.4244613352016801  0.7585886752582724  1.0000
  O   O288      1.0  0.12468481859827539  0.5755327737874183  0.7585868804440499  1.0000
  O   O289      1.0  0.14120028054602132  0.441574399064591  0.8016584822117004  1.0000
  O   O290      1.0  0.05842295792798864  0.47453591288472685  0.7183257615125583  1.0000
  O   O291      1.0  0.2749087036098781  0.5254715666615863  0.7183210659418452  1.0000
  O   O292      1.0  0.19213723819240702  0.5584230919304883  0.8016531125458862  1.0000
  O   O293      1.0  0.02546925816623877  0.6082433742710848  0.8016522700623988  1.0000
  O   O294      1.0  0.14119964220648906  0.5584243307164747  0.9683246684013437  1.0000
  O   O295      1.0  0.22509052164180862  0.35879855034025304  0.7183246569327103  1.0000
  O   O296      1.0  0.27490682045057013  0.4745287316685469  0.8849882498681232  1.0000
  O   O297      1.0  0.28105744812939454  0.35506668957885357  0.9760237876917407  1.0000
  O   O298      1.0  0.1449308013721548  0.614389874487091  0.892689321171149  1.0000
  O   O299      1.0  0.021731579993683116  0.5522864739791165  0.7260192446907797  1.0000
  O   O300      1.0  0.2189506118024477  0.47826661273610016  0.8093531848811386  1.0000
  O   O301      1.0  0.05228312514130989  0.3550666178607854  0.8093526444268098  1.0000
  O   O302      1.0  0.28105478199640865  0.6449344764960885  0.8093568030617619  1.0000
  O   O303      1.0  0.31159888871123803  0.5522776619742903  0.8926907399473348  1.0000
  O   O304      1.0  0.18839980348997848  0.6143813927871963  0.7260192306980718  1.0000
  O   O305      1.0  0.9999974622818252  0.5000002244343825  0.8381123072539276  1.0000
  O   O306      1.0  0.9999983935988314  0.33333675827843084  0.7547789306223994  1.0000
  O   O307      1.0  7.942271091943407e-07  0.5000000846299405  0.6714465771089263  1.0000
  O   O308      1.0  0.16666621595225056  0.49999661703078097  0.7547792814513378  1.0000
  O   O309      1.0  0.07553345472812052  0.4580166291674322  0.8419190844097951  1.0000
  O   O310      1.0  0.20864614089300892  0.5755383054371217  0.925254879818036  1.0000
  O   O311      1.0  0.1246837106962522  0.42446439961950955  0.9252552520695142  1.0000
  O   O312      1.0  0.09113183685933589  0.37531424624355275  0.6752550256502315  1.0000
  O   O313      1.0  0.2577983922560523  0.45801850414855877  0.6752548691658417  1.0000
  O   O314      1.0  0.24220185127025265  0.375316163960438  0.8419206018755491  1.0000
  O   O315      1.0  0.04198315198434772  0.5911292766887452  0.9252533382600275  1.0000
  O   O316      1.0  0.291350953536866  0.40886693286959813  0.9252541166788375  1.0000
  O   O317      1.0  0.307866866705509  0.6082421374466239  0.9683222714031562  1.0000
  O   O318      1.0  0.22508927575498971  0.6411992970774157  0.8849892512211753  1.0000
  O   O319      1.0  0.10823999954230315  0.35880588860546697  0.8849843038104508  1.0000
  O   O320      1.0  0.025472971880502616  0.39175745734601053  0.9683191837834677  1.0000
  O   O321      1.0  0.19213794686261282  0.4415757844531323  0.9683206416794641  1.0000
  O   O322      1.0  0.3078670067416955  0.39175869143231273  0.8016584713302496  1.0000
  O   O323      1.0  0.058422830100543624  0.5254665245238355  0.8849882256316297  1.0000
  O   O324      1.0  0.10824266378835858  0.6411940028235055  0.71832056776786  1.0000
  O   O325      1.0  0.11438782483271207  0.5217317040121503  0.8093558930044542  1.0000
  O   O326      1.0  0.3115991547757693  0.44772269684513044  0.7260242136741142  1.0000
  O   O327      1.0  0.1883973627335634  0.38561573659401627  0.8926863945737236  1.0000
  O   O328      1.0  0.05228325313201748  0.6449330791014408  0.9760199962950584  1.0000
  O   O329      1.0  0.21895001376287254  0.5217332532696967  0.9760200556379638  1.0000
  O   O330      1.0  0.11438799176608212  0.4782667402495878  0.9760238440012957  1.0000
  O   O331      1.0  0.14493270138302414  0.38560953676464194  0.7260246586171352  1.0000
  O   O332      1.0  0.02173079787273653  0.44771732751602467  0.8926861962618963  1.0000
  O   O333      1.0  0.16666779875540455  0.3333330307420678  0.6714462703492999  1.0000
  O   O334      1.0  0.16666561004774208  0.5000007491854763  0.9214467061109285  1.0000
  O   O335      1.0  0.16666667282621656  0.33333263193037044  0.838111324163005  1.0000
  O   O336      1.0  7.90276323615306e-07  0.3333321722734012  0.9214452034536474  1.0000
  Li  Li97      1.0  0.27267307402168856  0.8893417178565348  0.2767050036893479  1.0000
  Li  Li98      1.0  0.27732687305895215  0.93934246130632  0.193372737076276  1.0000
  Li  Li99      1.0  0.2226720577096226  0.8939903377407891  0.02670349242616866  1.0000
  Li  Li100     1.0  0.22732328009445157  0.9439971034451075  0.1100375068200727  1.0000
  Li  Li101     1.0  0.22732370598940965  0.722671077882143  0.276701533635784  1.0000
  Li  Li102     1.0  0.2726763370507672  0.7773279712678792  0.11003953055044138  1.0000
  Li  Li103     1.0  0.27732605791975773  0.7273248406018307  0.02670605612776269  1.0000
  Li  Li104     1.0  0.22266898666247176  0.7726772546563807  0.19336934185200208  1.0000
  Li  Li105     1.0  0.10601037265875321  0.7226707684049591  0.11004154362043282  1.0000
  Li  Li106     1.0  0.11065770928373685  0.7726743060767216  0.02670620536177193  1.0000
  Li  Li107     1.0  0.05599908984649005  0.7273225848614217  0.19336878984678738  1.0000
  Li  Li108     1.0  0.060657685160254896  0.77732935249456  0.27670112647470924  1.0000
  Li  Li109     1.0  0.06065739621267397  0.8893392641458129  0.11003451880046668  1.0000
  Li  Li110     1.0  0.10601078620795733  0.9439927555592815  0.2767061542730718  1.0000
  Li  Li111     1.0  0.11065811357342946  0.8939909687536923  0.193369708295082  1.0000
  Li  Li112     1.0  0.05600480255680769  0.9393442478606976  0.026702407227387735  1.0000
  B   B193      1.0  0.27698779459828415  0.9739893131256212  0.31760537734026956  1.0000
  B   B194      1.0  0.19267475193124642  0.9436539828819223  0.23427196615253285  1.0000
  B   B195      1.0  0.30732116047285374  0.8896863454728245  0.06760287319807881  1.0000
  B   B196      1.0  0.22301685876159422  0.8593438636782063  0.15093669085358447  1.0000
  B   B197      1.0  0.056349544636005465  0.9739893019721331  0.1509351939981822  1.0000
  B   B198      1.0  0.11031921583155978  0.8593441486397803  0.3176061199109253  1.0000
  B   B199      1.0  0.02600992081211502  0.8896795096978143  0.23427188805063118  1.0000
  B   B200      1.0  0.1406560839957898  0.9436472632369014  0.06760275013601529  1.0000
  B   B201      1.0  0.2051424335223993  0.9844228689866129  0.029025238100828146  1.0000
  B   B202      1.0  0.015576239624695329  0.7051435777642131  0.11235873400628393  1.0000
  B   B203      1.0  0.3177576740199919  0.9615273566958896  0.1123576341908319  1.0000
  B   B204      1.0  0.29485620024304177  0.8489070443431141  0.1956928814337949  1.0000
  B   B205      1.0  0.29485838487256066  0.8177602634098561  0.029025868435175337  1.0000
  B   B206      1.0  0.03847466965205123  0.8489110328629469  0.029025923097859292  1.0000
  B   B207      1.0  0.18224289609875438  0.794856412982991  0.1123591807306217  1.0000
  B   B208      1.0  0.1510924694334698  0.8718060073893387  0.1123580799830067  1.0000
  B   B209      1.0  0.11031866386193313  0.8073211586600191  0.15093878332499477  1.0000
  B   B210      1.0  0.026009805456277377  0.7769882018368295  0.06760697277988868  1.0000
  B   B211      1.0  0.14065335158173567  0.7230175887440052  0.23426903165454832  1.0000
  B   B212      1.0  0.056351380302114576  0.6926770489214421  0.317603084516981  1.0000
  B   B213      1.0  0.22301756307151707  0.8073226823493508  0.31760352939014364  1.0000
  B   B214      1.0  0.27698627651822866  0.6926783669713421  0.15093962810311706  1.0000
  B   B215      1.0  0.19267673940321706  0.723011650333892  0.0676068354381111  1.0000
  B   B216      1.0  0.3073205191734092  0.7769822269318796  0.23427008542774552  1.0000
  B   B217      1.0  0.03847276693971618  0.8177570214967285  0.19569054038552644  1.0000
  B   B218      1.0  0.1822418185109527  0.871808849649683  0.2790258929464386  1.0000
  B   B219      1.0  0.15109234001140492  0.7948582635395297  0.2790260711827108  1.0000
  B   B220      1.0  0.1281920373367949  0.6822392588859404  0.029025885799167303  1.0000
  B   B221      1.0  0.12819017417894601  0.9844267118575319  0.19569012867415342  1.0000
  B   B222      1.0  0.20514060678886192  0.6822425403803312  0.1956911454581349  1.0000
  B   B223      1.0  0.015576819500540934  0.9615241173091459  0.27902435069241865  1.0000
  B   B224      1.0  0.31776067635189  0.7051411438748848  0.27902489171660927  1.0000
  O   O337      1.0  0.2422043560033892  0.9580176932358384  0.00858709152986237  1.0000
  O   O338      1.0  0.04198291775300496  0.7422049692150836  0.09192148343550327  1.0000
  O   O339      1.0  0.2913487419426064  0.9244680776172678  0.09191940456813628  1.0000
  O   O340      1.0  0.25779559809943425  0.875315786199341  0.1752564311761783  1.0000
  O   O341      1.0  0.09113118561552677  0.9580175121766165  0.17525190173565505  1.0000
  O   O342      1.0  0.07553659913825955  0.875316229024891  0.008588254753158886  1.0000
  O   O343      1.0  0.20864902244519531  0.7577946685350133  0.09192200859160571  1.0000
  O   O344      1.0  0.12468481859827538  0.9088661071207517  0.09192021377738327  1.0000
  O   O345      1.0  0.14120028054602132  0.7749077323979243  0.13499181554503376  1.0000
  O   O346      1.0  0.05842295792798864  0.8078692462180601  0.051659094845891707  1.0000
  O   O347      1.0  0.2749087036098781  0.8588048999949197  0.051654399275178495  1.0000
  O   O348      1.0  0.19213723819240702  0.8917564252638217  0.1349864458792195  1.0000
  O   O349      1.0  0.025469258166238774  0.9415767076044181  0.1349856033957321  1.0000
  O   O350      1.0  0.14119964220648906  0.8917576640498079  0.3016580017346772  1.0000
  O   O351      1.0  0.22509052164180862  0.6921318836735864  0.05165799026604356  1.0000
  O   O352      1.0  0.27490682045057013  0.8078620650018803  0.21832158320145653  1.0000
  O   O353      1.0  0.28105744812939454  0.6884000229121868  0.3093571210250741  1.0000
  O   O354      1.0  0.1449308013721548  0.9477232078204245  0.22602265450448236  1.0000
  O   O355      1.0  0.021731579993683116  0.8856198073124497  0.0593525780241131  1.0000
  O   O356      1.0  0.2189506118024477  0.8115999460694335  0.1426865182144719  1.0000
  O   O357      1.0  0.05228312514130989  0.6883999511941188  0.14268597776014308  1.0000
  O   O358      1.0  0.28105478199640865  0.9782678098294219  0.14269013639509529  1.0000
  O   O359      1.0  0.3115988887112381  0.8856109953076234  0.22602407328066815  1.0000
  O   O360      1.0  0.18839980348997848  0.9477147261205294  0.05935256403140515  1.0000
  O   O361      1.0  0.9999974622818252  0.8333335577677159  0.17144564058726106  1.0000
  O   O362      1.0  0.9999983935988314  0.6666700916117642  0.08811226395573277  1.0000
  O   O363      1.0  7.942271091943407e-07  0.8333334179632739  0.004779910442259715  1.0000
  O   O364      1.0  0.16666621595225056  0.8333299503641143  0.08811261478467101  1.0000
  O   O365      1.0  0.07553345472812052  0.7913499625007656  0.17525241774312852  1.0000
  O   O366      1.0  0.20864614089300892  0.9088716387704551  0.2585882131513692  1.0000
  O   O367      1.0  0.1246837106962522  0.7577977329528429  0.2585885854028475  1.0000
  O   O368      1.0  0.09113183685933589  0.7086475795768861  0.008588358983564895  1.0000
  O   O369      1.0  0.2577983922560523  0.791351837481892  0.008588202499175005  1.0000
  O   O370      1.0  0.24220185127025265  0.7086494972937714  0.17525393520888236  1.0000
  O   O371      1.0  0.04198315198434772  0.9244626100220785  0.25858667159336085  1.0000
  O   O372      1.0  0.2913509535368661  0.7422002662029314  0.2585874500121708  1.0000
  O   O373      1.0  0.307866866705509  0.9415754707799572  0.3016556047364897  1.0000
  O   O374      1.0  0.22508927575498971  0.974532630410749  0.2183225845545087  1.0000
  O   O375      1.0  0.10823999954230316  0.6921392219388004  0.21831763714378408  1.0000
  O   O376      1.0  0.025472971880502616  0.7250907906793438  0.30165251711680097  1.0000
  O   O377      1.0  0.19213794686261282  0.7749091177864657  0.30165397501279734  1.0000
  O   O378      1.0  0.3078670067416955  0.725092024765646  0.134991804663583  1.0000
  O   O379      1.0  0.058422830100543624  0.8587998578571687  0.21832155896496314  1.0000
  O   O380      1.0  0.10824266378835858  0.9745273361568387  0.05165390110119334  1.0000
  O   O381      1.0  0.11438782483271207  0.8550650373454836  0.14268922633778758  1.0000
  O   O382      1.0  0.3115991547757693  0.7810560301784637  0.059357547007447636  1.0000
  O   O383      1.0  0.1883973627335634  0.7189490699273495  0.2260197279070569  1.0000
  O   O384      1.0  0.05228325313201748  0.978266412434774  0.3093533296283917  1.0000
  O   O385      1.0  0.21895001376287254  0.85506658660303  0.30935338897129716  1.0000
  O   O386      1.0  0.11438799176608212  0.8116000735829211  0.30935717733462903  1.0000
  O   O387      1.0  0.14493270138302414  0.7189428700979752  0.05935799195046851  1.0000
  O   O388      1.0  0.021730797872736532  0.7810506608493579  0.22601952959522953  1.0000
  O   O389      1.0  0.16666779875540455  0.6666663640754011  0.004779603682633247  1.0000
  O   O390      1.0  0.16666561004774208  0.8333340825188096  0.25478003944426186  1.0000
  O   O391      1.0  0.16666667282621656  0.6666659652637038  0.17144465749633842  1.0000
  O   O392      1.0  7.90276323615306e-07  0.6666655056067344  0.25477853678698087  1.0000
  Li  Li113     1.0  0.27267307402168856  0.8893417178565348  0.6100383370226812  1.0000
  Li  Li114     1.0  0.27732687305895215  0.9393424613063199  0.5267060704096094  1.0000
  Li  Li115     1.0  0.22267205770962256  0.893990337740789  0.360036825759502  1.0000
  Li  Li116     1.0  0.22732328009445157  0.9439971034451073  0.443370840153406  1.0000
  Li  Li117     1.0  0.22732370598940965  0.7226710778821428  0.6100348669691172  1.0000
  Li  Li118     1.0  0.2726763370507672  0.7773279712678791  0.4433728638837747  1.0000
  Li  Li119     1.0  0.27732605791975773  0.7273248406018306  0.36003938946109604  1.0000
  Li  Li120     1.0  0.22266898666247176  0.7726772546563806  0.5267026751853354  1.0000
  Li  Li121     1.0  0.10601037265875321  0.722670768404959  0.44337487695376615  1.0000
  Li  Li122     1.0  0.11065770928373685  0.7726743060767216  0.36003953869510524  1.0000
  Li  Li123     1.0  0.05599908984649005  0.7273225848614217  0.5267021231801207  1.0000
  Li  Li124     1.0  0.060657685160254896  0.77732935249456  0.6100344598080426  1.0000
  Li  Li125     1.0  0.06065739621267397  0.8893392641458128  0.4433678521338  1.0000
  Li  Li126     1.0  0.10601078620795733  0.9439927555592814  0.6100394876064053  1.0000
  Li  Li127     1.0  0.11065811357342946  0.8939909687536923  0.5267030416284154  1.0000
  Li  Li128     1.0  0.05600480255680769  0.9393442478606974  0.3600357405607211  1.0000
  B   B225      1.0  0.2769877945982841  0.9739893131256212  0.6509387106736029  1.0000
  B   B226      1.0  0.1926747519312464  0.9436539828819221  0.5676052994858662  1.0000
  B   B227      1.0  0.30732116047285374  0.8896863454728244  0.40093620653141215  1.0000
  B   B228      1.0  0.2230168587615942  0.8593438636782063  0.48427002418691784  1.0000
  B   B229      1.0  0.056349544636005465  0.9739893019721331  0.4842685273315155  1.0000
  B   B230      1.0  0.11031921583155978  0.8593441486397803  0.6509394532442586  1.0000
  B   B231      1.0  0.02600992081211502  0.8896795096978142  0.5676052213839644  1.0000
  B   B232      1.0  0.1406560839957898  0.9436472632369014  0.4009360834693486  1.0000
  B   B233      1.0  0.20514243352239928  0.9844228689866129  0.3623585714341615  1.0000
  B   B234      1.0  0.015576239624695329  0.7051435777642131  0.4456920673396173  1.0000
  B   B235      1.0  0.3177576740199919  0.9615273566958895  0.4456909675241652  1.0000
  B   B236      1.0  0.2948562002430418  0.8489070443431141  0.5290262147671282  1.0000
  B   B237      1.0  0.29485838487256066  0.817760263409856  0.3623592017685087  1.0000
  B   B238      1.0  0.03847466965205123  0.8489110328629468  0.3623592564311926  1.0000
  B   B239      1.0  0.18224289609875435  0.794856412982991  0.4456925140639551  1.0000
  B   B240      1.0  0.1510924694334698  0.8718060073893386  0.44569141331634005  1.0000
  B   B241      1.0  0.11031866386193313  0.8073211586600191  0.48427211665832814  1.0000
  B   B242      1.0  0.026009805456277377  0.7769882018368293  0.40094030611322196  1.0000
  B   B243      1.0  0.14065335158173567  0.723017588744005  0.5676023649878816  1.0000
  B   B244      1.0  0.056351380302114576  0.6926770489214419  0.6509364178503142  1.0000
  B   B245      1.0  0.22301756307151707  0.8073226823493508  0.650936862723477  1.0000
  B   B246      1.0  0.27698627651822866  0.6926783669713421  0.4842729614364503  1.0000
  B   B247      1.0  0.19267673940321706  0.723011650333892  0.40094016877144445  1.0000
  B   B248      1.0  0.3073205191734092  0.7769822269318796  0.5676034187610788  1.0000
  B   B249      1.0  0.03847276693971618  0.8177570214967284  0.5290238737188598  1.0000
  B   B250      1.0  0.1822418185109527  0.871808849649683  0.6123592262797719  1.0000
  B   B251      1.0  0.15109234001140492  0.7948582635395297  0.6123594045160442  1.0000
  B   B252      1.0  0.1281920373367949  0.6822392588859405  0.36235921913250063  1.0000
  B   B253      1.0  0.12819017417894601  0.9844267118575318  0.5290234620074867  1.0000
  B   B254      1.0  0.2051406067888619  0.682242540380331  0.5290244787914683  1.0000
  B   B255      1.0  0.015576819500540936  0.9615241173091458  0.612357684025752  1.0000
  B   B256      1.0  0.3177606763518901  0.7051411438748848  0.6123582250499425  1.0000
  O   O393      1.0  0.2422043560033892  0.9580176932358383  0.34192042486319574  1.0000
  O   O394      1.0  0.04198291775300496  0.7422049692150837  0.42525481676883664  1.0000
  O   O395      1.0  0.2913487419426064  0.9244680776172678  0.42525273790146956  1.0000
  O   O396      1.0  0.25779559809943425  0.8753157861993409  0.5085897645095117  1.0000
  O   O397      1.0  0.09113118561552677  0.9580175121766165  0.5085852350689883  1.0000
  O   O398      1.0  0.07553659913825955  0.875316229024891  0.34192158808649226  1.0000
  O   O399      1.0  0.2086490224451953  0.7577946685350133  0.425255341924939  1.0000
  O   O400      1.0  0.12468481859827539  0.9088661071207516  0.42525354711071656  1.0000
  O   O401      1.0  0.1412002805460213  0.7749077323979242  0.4683251488783671  1.0000
  O   O402      1.0  0.05842295792798864  0.8078692462180601  0.384992428179225  1.0000
  O   O403      1.0  0.27490870360987807  0.8588048999949198  0.3849877326085118  1.0000
  O   O404      1.0  0.192137238192407  0.8917564252638217  0.46831977921255286  1.0000
  O   O405      1.0  0.025469258166238774  0.9415767076044179  0.4683189367290655  1.0000
  O   O406      1.0  0.14119964220648903  0.8917576640498079  0.6349913350680106  1.0000
  O   O407      1.0  0.2250905216418086  0.6921318836735862  0.38499132359937693  1.0000
  O   O408      1.0  0.27490682045057013  0.8078620650018801  0.5516549165347898  1.0000
  O   O409      1.0  0.2810574481293945  0.6884000229121868  0.6426904543584074  1.0000
  O   O410      1.0  0.14493080137215475  0.9477232078204245  0.5593559878378157  1.0000
  O   O411      1.0  0.021731579993683116  0.8856198073124497  0.39268591135744646  1.0000
  O   O412      1.0  0.21895061180244768  0.8115999460694335  0.47601985154780513  1.0000
  O   O413      1.0  0.05228312514130989  0.6883999511941186  0.4760193110934764  1.0000
  O   O414      1.0  0.28105478199640865  0.9782678098294219  0.47602346972842857  1.0000
  O   O415      1.0  0.3115988887112381  0.8856109953076234  0.5593574066140015  1.0000
  O   O416      1.0  0.18839980348997848  0.9477147261205294  0.39268589736473847  1.0000
  O   O417      1.0  0.9999974622818252  0.8333335577677158  0.5047789739205943  1.0000
  O   O418      1.0  0.9999983935988314  0.666670091611764  0.4214455972890661  1.0000
  O   O419      1.0  7.942271091943407e-07  0.8333334179632738  0.33811324377559304  1.0000
  O   O420      1.0  0.16666621595225053  0.8333299503641142  0.4214459481180044  1.0000
  O   O421      1.0  0.07553345472812052  0.7913499625007655  0.5085857510764619  1.0000
  O   O422      1.0  0.2086461408930089  0.9088716387704551  0.5919215464847025  1.0000
  O   O423      1.0  0.1246837106962522  0.7577977329528428  0.5919219187361809  1.0000
  O   O424      1.0  0.09113183685933589  0.708647579576886  0.34192169231689823  1.0000
  O   O425      1.0  0.2577983922560523  0.791351837481892  0.34192153583250834  1.0000
  O   O426      1.0  0.24220185127025265  0.7086494972937712  0.5085872685422157  1.0000
  O   O427      1.0  0.04198315198434772  0.9244626100220785  0.5919200049266942  1.0000
  O   O428      1.0  0.2913509535368661  0.7422002662029314  0.5919207833455041  1.0000
  O   O429      1.0  0.30786686670550906  0.9415754707799572  0.6349889380698232  1.0000
  O   O430      1.0  0.2250892757549897  0.974532630410749  0.5516559178878421  1.0000
  O   O431      1.0  0.10823999954230316  0.6921392219388004  0.5516509704771175  1.0000
  O   O432      1.0  0.025472971880502616  0.7250907906793438  0.6349858504501343  1.0000
  O   O433      1.0  0.1921379468626128  0.7749091177864657  0.6349873083461306  1.0000
  O   O434      1.0  0.30786700674169554  0.7250920247656459  0.46832513799691633  1.0000
  O   O435      1.0  0.058422830100543624  0.8587998578571687  0.5516548922982966  1.0000
  O   O436      1.0  0.10824266378835858  0.9745273361568387  0.3849872344345267  1.0000
  O   O437      1.0  0.11438782483271207  0.8550650373454836  0.4760225596711208  1.0000
  O   O438      1.0  0.3115991547757693  0.7810560301784638  0.3926908803407809  1.0000
  O   O439      1.0  0.1883973627335634  0.7189490699273494  0.5593530612403902  1.0000
  O   O440      1.0  0.05228325313201748  0.9782664124347739  0.6426866629617249  1.0000
  O   O441      1.0  0.21895001376287251  0.8550665866030298  0.6426867223046305  1.0000
  O   O442      1.0  0.11438799176608212  0.8116000735829211  0.6426905106679625  1.0000
  O   O443      1.0  0.1449327013830241  0.7189428700979752  0.39269132528380185  1.0000
  O   O444      1.0  0.021730797872736532  0.7810506608493579  0.5593528629285628  1.0000
  O   O445      1.0  0.16666779875540455  0.6666663640754011  0.3381129370159666  1.0000
  O   O446      1.0  0.16666561004774205  0.8333340825188095  0.5881133727775951  1.0000
  O   O447      1.0  0.16666667282621653  0.6666659652637037  0.5047779908296718  1.0000
  O   O448      1.0  7.902763236153061e-07  0.6666655056067343  0.5881118701203143  1.0000
  Li  Li129     1.0  0.27267307402168856  0.8893417178565347  0.9433716703560148  1.0000
  Li  Li130     1.0  0.27732687305895215  0.93934246130632  0.8600394037429427  1.0000
  Li  Li131     1.0  0.2226720577096226  0.8939903377407891  0.6933701590928354  1.0000
  Li  Li132     1.0  0.22732328009445157  0.9439971034451075  0.7767041734867394  1.0000
  Li  Li133     1.0  0.22732370598940965  0.7226710778821431  0.9433682003024508  1.0000
  Li  Li134     1.0  0.2726763370507672  0.7773279712678792  0.7767061972171081  1.0000
  Li  Li135     1.0  0.27732605791975773  0.7273248406018307  0.6933727227944294  1.0000
  Li  Li136     1.0  0.22266898666247176  0.7726772546563807  0.8600360085186688  1.0000
  Li  Li137     1.0  0.10601037265875321  0.7226707684049591  0.7767082102870996  1.0000
  Li  Li138     1.0  0.11065770928373685  0.7726743060767217  0.6933728720284387  1.0000
  Li  Li139     1.0  0.05599908984649005  0.7273225848614217  0.8600354565134541  1.0000
  Li  Li140     1.0  0.060657685160254896  0.7773293524945599  0.943367793141376  1.0000
  Li  Li141     1.0  0.06065739621267397  0.8893392641458129  0.7767011854671334  1.0000
  Li  Li142     1.0  0.10601078620795733  0.9439927555592815  0.9433728209397385  1.0000
  Li  Li143     1.0  0.11065811357342946  0.8939909687536923  0.8600363749617487  1.0000
  Li  Li144     1.0  0.05600480255680769  0.9393442478606977  0.6933690738940544  1.0000
  B   B257      1.0  0.27698779459828415  0.9739893131256213  0.9842720440069362  1.0000
  B   B258      1.0  0.19267475193124642  0.9436539828819223  0.9009386328191995  1.0000
  B   B259      1.0  0.3073211604728537  0.8896863454728245  0.7342695398647455  1.0000
  B   B260      1.0  0.22301685876159422  0.8593438636782063  0.8176033575202513  1.0000
  B   B261      1.0  0.056349544636005465  0.9739893019721331  0.817601860664849  1.0000
  B   B262      1.0  0.11031921583155978  0.8593441486397803  0.9842727865775922  1.0000
  B   B263      1.0  0.02600992081211502  0.8896795096978143  0.9009385547172979  1.0000
  B   B264      1.0  0.1406560839957898  0.9436472632369013  0.734269416802682  1.0000
  B   B265      1.0  0.2051424335223993  0.984422868986613  0.6956919047674948  1.0000
  B   B266      1.0  0.01557623962469533  0.7051435777642131  0.7790254006729506  1.0000
  B   B267      1.0  0.3177576740199919  0.9615273566958898  0.7790243008574986  1.0000
  B   B268      1.0  0.29485620024304177  0.8489070443431141  0.8623595481004617  1.0000
  B   B269      1.0  0.2948583848725606  0.8177602634098561  0.695692535101842  1.0000
  B   B270      1.0  0.03847466965205123  0.8489110328629468  0.6956925897645261  1.0000
  B   B271      1.0  0.18224289609875438  0.794856412982991  0.7790258473972884  1.0000
  B   B272      1.0  0.1510924694334698  0.8718060073893386  0.7790247466496734  1.0000
  B   B273      1.0  0.11031866386193313  0.8073211586600191  0.8176054499916615  1.0000
  B   B274      1.0  0.026009805456277377  0.7769882018368295  0.7342736394465554  1.0000
  B   B275      1.0  0.14065335158173567  0.7230175887440052  0.9009356983212151  1.0000
  B   B276      1.0  0.056351380302114576  0.6926770489214421  0.9842697511836478  1.0000
  B   B277      1.0  0.22301756307151707  0.8073226823493508  0.9842701960568104  1.0000
  B   B278      1.0  0.27698627651822866  0.6926783669713421  0.8176062947697839  1.0000
  B   B279      1.0  0.19267673940321706  0.723011650333892  0.7342735021047778  1.0000
  B   B280      1.0  0.3073205191734092  0.7769822269318796  0.9009367520944123  1.0000
  B   B281      1.0  0.03847276693971618  0.8177570214967285  0.8623572070521931  1.0000
  B   B282      1.0  0.1822418185109527  0.871808849649683  0.9456925596131053  1.0000
  B   B283      1.0  0.15109234001140492  0.7948582635395297  0.9456927378493776  1.0000
  B   B284      1.0  0.1281920373367949  0.6822392588859405  0.6956925524658341  1.0000
  B   B285      1.0  0.12819017417894601  0.9844267118575318  0.8623567953408201  1.0000
  B   B286      1.0  0.20514060678886192  0.6822425403803312  0.8623578121248016  1.0000
  B   B287      1.0  0.015576819500540936  0.961524117309146  0.9456910173590855  1.0000
  B   B288      1.0  0.31776067635189  0.7051411438748848  0.945691558383276  1.0000
  O   O449      1.0  0.2422043560033892  0.9580176932358385  0.6752537581965291  1.0000
  O   O450      1.0  0.04198291775300496  0.7422049692150837  0.75858815010217  1.0000
  O   O451      1.0  0.29134874194260635  0.9244680776172678  0.7585860712348029  1.0000
  O   O452      1.0  0.25779559809943425  0.875315786199341  0.841923097842845  1.0000
  O   O453      1.0  0.09113118561552677  0.9580175121766165  0.8419185684023218  1.0000
  O   O454      1.0  0.07553659913825955  0.8753162290248911  0.6752549214198256  1.0000
  O   O455      1.0  0.20864902244519531  0.7577946685350135  0.7585886752582724  1.0000
  O   O456      1.0  0.12468481859827539  0.9088661071207517  0.75858688044405  1.0000
  O   O457      1.0  0.14120028054602132  0.7749077323979243  0.8016584822117006  1.0000
  O   O458      1.0  0.05842295792798864  0.8078692462180601  0.7183257615125584  1.0000
  O   O459      1.0  0.2749087036098781  0.8588048999949198  0.7183210659418452  1.0000
  O   O460      1.0  0.19213723819240702  0.8917564252638217  0.8016531125458863  1.0000
  O   O461      1.0  0.025469258166238774  0.9415767076044181  0.8016522700623989  1.0000
  O   O462      1.0  0.14119964220648906  0.8917576640498082  0.9683246684013439  1.0000
  O   O463      1.0  0.22509052164180862  0.6921318836735864  0.7183246569327103  1.0000
  O   O464      1.0  0.27490682045057013  0.8078620650018803  0.8849882498681233  1.0000
  O   O465      1.0  0.28105744812939454  0.6884000229121868  0.9760237876917407  1.0000
  O   O466      1.0  0.1449308013721548  0.9477232078204244  0.8926893211711491  1.0000
  O   O467      1.0  0.021731579993683116  0.8856198073124497  0.7260192446907798  1.0000
  O   O468      1.0  0.2189506118024477  0.8115999460694335  0.8093531848811387  1.0000
  O   O469      1.0  0.05228312514130989  0.6883999511941188  0.8093526444268099  1.0000
  O   O470      1.0  0.28105478199640865  0.9782678098294217  0.809356803061762  1.0000
  O   O471      1.0  0.31159888871123803  0.8856109953076235  0.8926907399473348  1.0000
  O   O472      1.0  0.18839980348997848  0.9477147261205296  0.726019230698072  1.0000
  O   O473      1.0  0.9999974622818252  0.8333335577677159  0.8381123072539277  1.0000
  O   O474      1.0  0.9999983935988314  0.6666700916117643  0.7547789306223994  1.0000
  O   O475      1.0  7.942271091943407e-07  0.8333334179632739  0.6714465771089264  1.0000
  O   O476      1.0  0.16666621595225056  0.8333299503641143  0.7547792814513378  1.0000
  O   O477      1.0  0.07553345472812052  0.7913499625007656  0.8419190844097952  1.0000
  O   O478      1.0  0.20864614089300892  0.9088716387704552  0.925254879818036  1.0000
  O   O479      1.0  0.1246837106962522  0.7577977329528429  0.9252552520695142  1.0000
  O   O480      1.0  0.09113183685933589  0.7086475795768861  0.6752550256502317  1.0000
  O   O481      1.0  0.25779839225605233  0.7913518374818921  0.6752548691658418  1.0000
  O   O482      1.0  0.24220185127025265  0.7086494972937714  0.8419206018755491  1.0000
  O   O483      1.0  0.04198315198434772  0.9244626100220785  0.9252533382600276  1.0000
  O   O484      1.0  0.291350953536866  0.7422002662029316  0.9252541166788376  1.0000
  O   O485      1.0  0.307866866705509  0.9415754707799573  0.9683222714031564  1.0000
  O   O486      1.0  0.22508927575498971  0.974532630410749  0.8849892512211754  1.0000
  O   O487      1.0  0.10823999954230316  0.6921392219388004  0.8849843038104509  1.0000
  O   O488      1.0  0.025472971880502616  0.7250907906793438  0.9683191837834677  1.0000
  O   O489      1.0  0.19213794686261282  0.7749091177864657  0.9683206416794641  1.0000
  O   O490      1.0  0.3078670067416955  0.725092024765646  0.8016584713302496  1.0000
  O   O491      1.0  0.058422830100543624  0.8587998578571687  0.8849882256316298  1.0000
  O   O492      1.0  0.10824266378835858  0.9745273361568387  0.7183205677678601  1.0000
  O   O493      1.0  0.11438782483271207  0.8550650373454836  0.8093558930044543  1.0000
  O   O494      1.0  0.3115991547757693  0.7810560301784638  0.7260242136741143  1.0000
  O   O495      1.0  0.1883973627335634  0.7189490699273497  0.8926863945737236  1.0000
  O   O496      1.0  0.05228325313201748  0.9782664124347741  0.9760199962950584  1.0000
  O   O497      1.0  0.21895001376287254  0.85506658660303  0.9760200556379638  1.0000
  O   O498      1.0  0.11438799176608212  0.8116000735829212  0.9760238440012958  1.0000
  O   O499      1.0  0.14493270138302414  0.7189428700979753  0.7260246586171353  1.0000
  O   O500      1.0  0.021730797872736532  0.781050660849358  0.8926861962618964  1.0000
  O   O501      1.0  0.16666779875540455  0.6666663640754013  0.6714462703492999  1.0000
  O   O502      1.0  0.16666561004774208  0.8333340825188096  0.9214467061109286  1.0000
  O   O503      1.0  0.16666667282621656  0.6666659652637038  0.838111324163005  1.0000
  O   O504      1.0  7.902763236153062e-07  0.6666655056067347  0.9214452034536476  1.0000
  Li  Li145     1.0  0.6060064073550219  0.22267505118986805  0.2767050036893479  1.0000
  Li  Li146     1.0  0.6106602063922855  0.2726757946396533  0.19337273707627603  1.0000
  Li  Li147     1.0  0.5560053910429559  0.2273236710741224  0.02670349242616866  1.0000
  Li  Li148     1.0  0.5606566134277849  0.27733043677844077  0.1100375068200727  1.0000
  Li  Li149     1.0  0.560657039322743  0.0560044112154763  0.276701533635784  1.0000
  Li  Li150     1.0  0.6060096703841005  0.11066130460121251  0.11003953055044138  1.0000
  Li  Li151     1.0  0.6106593912530912  0.06065817393516394  0.02670605612776269  1.0000
  Li  Li152     1.0  0.5560023199958052  0.10601058798971398  0.19336934185200208  1.0000
  Li  Li153     1.0  0.4393437059920866  0.056004101738292456  0.11004154362043282  1.0000
  Li  Li154     1.0  0.4439910426170702  0.10600763941005503  0.02670620536177193  1.0000
  Li  Li155     1.0  0.3893324231798234  0.060655918194755035  0.1933687898467874  1.0000
  Li  Li156     1.0  0.3939910184935882  0.11066268582789328  0.27670112647470924  1.0000
  Li  Li157     1.0  0.39399072954600733  0.22267259747914608  0.11003451880046668  1.0000
  Li  Li158     1.0  0.43934411954129066  0.27732608889261473  0.2767061542730718  1.0000
  Li  Li159     1.0  0.4439914469067628  0.22732430208702573  0.193369708295082  1.0000
  Li  Li160     1.0  0.389338135890141  0.27267758119403085  0.026702407227387735  1.0000
  B   B289      1.0  0.6103211279316174  0.30732264645895446  0.31760537734026956  1.0000
  B   B290      1.0  0.5260080852645798  0.2769873162152556  0.23427196615253285  1.0000
  B   B291      1.0  0.640654493806187  0.22301967880615778  0.0676028731980788  1.0000
  B   B292      1.0  0.5563501920949276  0.19267719701153962  0.15093669085358447  1.0000
  B   B293      1.0  0.38968287796933887  0.3073226353054664  0.1509351939981822  1.0000
  B   B294      1.0  0.4436525491648931  0.19267748197311352  0.3176061199109253  1.0000
  B   B295      1.0  0.3593432541454483  0.22301284303114755  0.23427188805063118  1.0000
  B   B296      1.0  0.4739894173291231  0.2769805965702347  0.06760275013601529  1.0000
  B   B297      1.0  0.5384757668557326  0.3177562023199462  0.029025238100828146  1.0000
  B   B298      1.0  0.3489095729580287  0.03847691109754639  0.11235873400628393  1.0000
  B   B299      1.0  0.6510910073533251  0.29486069002922294  0.11235763419083189  1.0000
  B   B300      1.0  0.6281895335763752  0.18224037767644755  0.19569288143379493  1.0000
  B   B301      1.0  0.6281917182058939  0.15109359674318937  0.029025868435175337  1.0000
  B   B302      1.0  0.3718080029853845  0.1822443661962801  0.029025923097859292  1.0000
  B   B303      1.0  0.5155762294320877  0.12818974631632435  0.1123591807306217  1.0000
  B   B304      1.0  0.48442580276680314  0.20513934072267187  0.1123580799830067  1.0000
  B   B305      1.0  0.44365199719526643  0.14065449199335245  0.15093878332499477  1.0000
  B   B306      1.0  0.35934313878961077  0.11032153517016274  0.06760697277988867  1.0000
  B   B307      1.0  0.47398668491506896  0.05635092207733839  0.23426903165454835  1.0000
  B   B308      1.0  0.38968471363544793  0.0260103822547753  0.31760308451698094  1.0000
  B   B309      1.0  0.5563508964048504  0.14065601568268402  0.31760352939014364  1.0000
  B   B310      1.0  0.6103196098515621  0.026011700304675516  0.15093962810311706  1.0000
  B   B311      1.0  0.5260100727365504  0.05634498366722526  0.06760683543811108  1.0000
  B   B312      1.0  0.6406538525067426  0.11031556026521284  0.23427008542774552  1.0000
  B   B313      1.0  0.3718061002730495  0.15109035483006178  0.19569054038552644  1.0000
  B   B314      1.0  0.515575151844286  0.20514218298301626  0.2790258929464386  1.0000
  B   B315      1.0  0.48442567334473824  0.12819159687286294  0.2790260711827108  1.0000
  B   B316      1.0  0.4615253706701282  0.015572592219273767  0.0290258857991673  1.0000
  B   B317      1.0  0.46152350751227933  0.31776004519086515  0.19569012867415342  1.0000
  B   B318      1.0  0.5384739401221952  0.015575873713664425  0.1956911454581349  1.0000
  B   B319      1.0  0.3489101528338742  0.2948574506424791  0.27902435069241865  1.0000
  B   B320      1.0  0.6510940096852235  0.038474477208218165  0.2790248917166092  1.0000
  O   O505      1.0  0.5755376893367226  0.2913510265691717  0.008587091529862373  1.0000
  O   O506      1.0  0.3753162510863383  0.075538302548417  0.09192148343550326  1.0000
  O   O507      1.0  0.6246820752759398  0.257801410950601  0.09191940456813627  1.0000
  O   O508      1.0  0.5911289314327677  0.2086491195326743  0.1752564311761783  1.0000
  O   O509      1.0  0.4244645189488601  0.2913508455099498  0.17525190173565505  1.0000
  O   O510      1.0  0.4088699324715928  0.20864956235822443  0.008588254753158886  1.0000
  O   O511      1.0  0.5419823557785287  0.09112800186834671  0.09192200859160571  1.0000
  O   O512      1.0  0.4580181519316087  0.24219944045408492  0.09192021377738327  1.0000
  O   O513      1.0  0.47453361387935467  0.1082410657312576  0.13499181554503378  1.0000
  O   O514      1.0  0.39175629126132194  0.14120257955139343  0.051659094845891707  1.0000
  O   O515      1.0  0.6082420369432114  0.19213823332825306  0.051654399275178495  1.0000
  O   O516      1.0  0.5254705715257403  0.22508975859715508  0.1349864458792195  1.0000
  O   O517      1.0  0.3588025914995721  0.2749100409377513  0.1349856033957321  1.0000
  O   O518      1.0  0.4745329755398224  0.22509099738314134  0.3016580017346772  1.0000
  O   O519      1.0  0.5584238549751419  0.025465217006919613  0.05165799026604356  1.0000
  O   O520      1.0  0.6082401537839036  0.14119539833521358  0.21832158320145653  1.0000
  O   O521      1.0  0.6143907814627279  0.021733356245520186  0.30935712102507407  1.0000
  O   O522      1.0  0.4782641347054881  0.2810565411537577  0.22602265450448236  1.0000
  O   O523      1.0  0.3550649133270164  0.21895314064578308  0.0593525780241131  1.0000
  O   O524      1.0  0.552283945135781  0.14493327940276682  0.1426865182144719  1.0000
  O   O525      1.0  0.38561645847464326  0.021733284527452004  0.14268597776014308  1.0000
  O   O526      1.0  0.6143881153297419  0.3116011431627552  0.14269013639509529  1.0000
  O   O527      1.0  0.6449322220445713  0.2189443286409569  0.22602407328066818  1.0000
  O   O528      1.0  0.5217331368233119  0.2810480594538628  0.05935256403140514  1.0000
  O   O529      1.0  0.3333307956151585  0.16666689110104918  0.17144564058726106  1.0000
  O   O530      1.0  0.3333317269321646  3.424945097437026e-06  0.08811226395573277  1.0000
  O   O531      1.0  0.3333341275604425  0.1666667512966071  0.004779910442259715  1.0000
  O   O532      1.0  0.49999954928558393  0.16666328369744757  0.088112614784671  1.0000
  O   O533      1.0  0.40886678806145393  0.12468329583409879  0.17525241774312855  1.0000
  O   O534      1.0  0.5419794742263423  0.2422049721037884  0.2585882131513692  1.0000
  O   O535      1.0  0.4580170440295855  0.09113106628617614  0.2585885854028475  1.0000
  O   O536      1.0  0.4244651701926692  0.04198091291021935  0.008588358983564895  1.0000
  O   O537      1.0  0.5911317255893855  0.1246851708152254  0.008588202499175007  1.0000
  O   O538      1.0  0.575535184603586  0.04198283062710462  0.17525393520888238  1.0000
  O   O539      1.0  0.3753164853176811  0.2577959433554118  0.25858667159336085  1.0000
  O   O540      1.0  0.6246842868701994  0.07553359953626476  0.2585874500121708  1.0000
  O   O541      1.0  0.6412002000388424  0.2749088041132906  0.3016556047364897  1.0000
  O   O542      1.0  0.558422609088323  0.30786596374408237  0.2183225845545087  1.0000
  O   O543      1.0  0.4415733328756365  0.025472555272133626  0.2183176371437841  1.0000
  O   O544      1.0  0.35880630521383594  0.05842412401267708  0.30165251711680097  1.0000
  O   O545      1.0  0.5254712801959461  0.10824245111979891  0.3016539750127973  1.0000
  O   O546      1.0  0.6412003400750289  0.05842535809897934  0.134991804663583  1.0000
  O   O547      1.0  0.391756163433877  0.1921331911905021  0.21832155896496316  1.0000
  O   O548      1.0  0.4415759971216919  0.307860669490172  0.05165390110119334  1.0000
  O   O549      1.0  0.44772115816604546  0.18839837067881693  0.14268922633778758  1.0000
  O   O550      1.0  0.6449324881091026  0.11438936351179711  0.05935754700744762  1.0000
  O   O551      1.0  0.5217306960668967  0.05228240326068292  0.2260197279070569  1.0000
  O   O552      1.0  0.38561658646535085  0.3115997457681073  0.3093533296283917  1.0000
  O   O553      1.0  0.5522833470962059  0.18839991993636324  0.3093533889712971  1.0000
  O   O554      1.0  0.4477213250994155  0.1449334069162545  0.30935717733462903  1.0000
  O   O555      1.0  0.4782660347163574  0.052276203431308524  0.059357991950468494  1.0000
  O   O556      1.0  0.3550641312060699  0.11438399418269128  0.22601952959522953  1.0000
  O   O557      1.0  0.5000011320887379  0.9999996974087344  0.004779603682633247  1.0000
  O   O558      1.0  0.49999894338107537  0.16666741585214284  0.25478003944426186  1.0000
  O   O559      1.0  0.5000000061595499  0.9999992985970371  0.17144465749633844  1.0000
  O   O560      1.0  0.333334123609657  0.9999988389400678  0.25477853678698087  1.0000
  Li  Li161     1.0  0.6060064073550219  0.22267505118986802  0.6100383370226812  1.0000
  Li  Li162     1.0  0.6106602063922856  0.2726757946396533  0.5267060704096094  1.0000
  Li  Li163     1.0  0.556005391042956  0.22732367107412238  0.360036825759502  1.0000
  Li  Li164     1.0  0.5606566134277849  0.27733043677844077  0.44337084015340605  1.0000
  Li  Li165     1.0  0.560657039322743  0.05600441121547631  0.6100348669691174  1.0000
  Li  Li166     1.0  0.6060096703841005  0.11066130460121251  0.44337286388377467  1.0000
  Li  Li167     1.0  0.6106593912530912  0.06065817393516395  0.36003938946109604  1.0000
  Li  Li168     1.0  0.5560023199958051  0.10601058798971397  0.5267026751853354  1.0000
  Li  Li169     1.0  0.4393437059920866  0.056004101738292456  0.44337487695376615  1.0000
  Li  Li170     1.0  0.4439910426170702  0.10600763941005502  0.36003953869510524  1.0000
  Li  Li171     1.0  0.3893324231798234  0.06065591819475505  0.5267021231801206  1.0000
  Li  Li172     1.0  0.39399101849358825  0.11066268582789329  0.6100344598080426  1.0000
  Li  Li173     1.0  0.39399072954600733  0.22267259747914608  0.4433678521338  1.0000
  Li  Li174     1.0  0.43934411954129066  0.27732608889261473  0.6100394876064051  1.0000
  Li  Li175     1.0  0.4439914469067628  0.2273243020870257  0.5267030416284153  1.0000
  Li  Li176     1.0  0.38933813589014105  0.27267758119403085  0.3600357405607211  1.0000
  B   B321      1.0  0.6103211279316175  0.3073226464589546  0.6509387106736029  1.0000
  B   B322      1.0  0.5260080852645798  0.2769873162152556  0.5676052994858662  1.0000
  B   B323      1.0  0.640654493806187  0.22301967880615775  0.40093620653141215  1.0000
  B   B324      1.0  0.5563501920949276  0.1926771970115396  0.48427002418691784  1.0000
  B   B325      1.0  0.38968287796933887  0.3073226353054664  0.48426852733151554  1.0000
  B   B326      1.0  0.4436525491648931  0.19267748197311352  0.6509394532442586  1.0000
  B   B327      1.0  0.3593432541454483  0.22301284303114752  0.5676052213839644  1.0000
  B   B328      1.0  0.4739894173291231  0.2769805965702347  0.4009360834693486  1.0000
  B   B329      1.0  0.5384757668557326  0.3177562023199462  0.3623585714341615  1.0000
  B   B330      1.0  0.34890957295802866  0.03847691109754639  0.4456920673396173  1.0000
  B   B331      1.0  0.6510910073533251  0.29486069002922294  0.44569096752416515  1.0000
  B   B332      1.0  0.6281895335763752  0.18224037767644752  0.5290262147671282  1.0000
  B   B333      1.0  0.628191718205894  0.15109359674318934  0.36235920176850867  1.0000
  B   B334      1.0  0.3718080029853846  0.18224436619628007  0.3623592564311926  1.0000
  B   B335      1.0  0.5155762294320877  0.12818974631632435  0.44569251406395505  1.0000
  B   B336      1.0  0.4844258027668032  0.20513934072267184  0.44569141331634005  1.0000
  B   B337      1.0  0.44365199719526643  0.14065449199335242  0.4842721166583281  1.0000
  B   B338      1.0  0.35934313878961077  0.11032153517016274  0.40094030611322196  1.0000
  B   B339      1.0  0.47398668491506896  0.05635092207733839  0.5676023649878815  1.0000
  B   B340      1.0  0.38968471363544793  0.0260103822547753  0.6509364178503143  1.0000
  B   B341      1.0  0.5563508964048504  0.14065601568268404  0.650936862723477  1.0000
  B   B342      1.0  0.6103196098515621  0.026011700304675513  0.4842729614364503  1.0000
  B   B343      1.0  0.5260100727365504  0.05634498366722527  0.4009401687714444  1.0000
  B   B344      1.0  0.6406538525067427  0.11031556026521286  0.5676034187610788  1.0000
  B   B345      1.0  0.3718061002730495  0.15109035483006178  0.5290238737188598  1.0000
  B   B346      1.0  0.515575151844286  0.20514218298301623  0.6123592262797719  1.0000
  B   B347      1.0  0.48442567334473824  0.12819159687286294  0.6123594045160441  1.0000
  B   B348      1.0  0.4615253706701282  0.015572592219273767  0.36235921913250063  1.0000
  B   B349      1.0  0.4615235075122794  0.31776004519086515  0.5290234620074867  1.0000
  B   B350      1.0  0.5384739401221954  0.015575873713664425  0.5290244787914683  1.0000
  B   B351      1.0  0.3489101528338742  0.29485745064247915  0.6123576840257521  1.0000
  B   B352      1.0  0.6510940096852235  0.03847447720821817  0.6123582250499426  1.0000
  O   O561      1.0  0.5755376893367227  0.2913510265691717  0.3419204248631957  1.0000
  O   O562      1.0  0.3753162510863383  0.075538302548417  0.4252548167688366  1.0000
  O   O563      1.0  0.6246820752759398  0.257801410950601  0.4252527379014696  1.0000
  O   O564      1.0  0.5911289314327676  0.2086491195326743  0.5085897645095117  1.0000
  O   O565      1.0  0.4244645189488601  0.2913508455099498  0.5085852350689883  1.0000
  O   O566      1.0  0.408869932471593  0.20864956235822443  0.3419215880864922  1.0000
  O   O567      1.0  0.5419823557785287  0.09112800186834671  0.425255341924939  1.0000
  O   O568      1.0  0.4580181519316087  0.24219944045408492  0.4252535471107166  1.0000
  O   O569      1.0  0.4745336138793547  0.1082410657312576  0.46832514887836707  1.0000
  O   O570      1.0  0.391756291261322  0.1412025795513934  0.3849924281792251  1.0000
  O   O571      1.0  0.6082420369432114  0.19213823332825303  0.38498773260851177  1.0000
  O   O572      1.0  0.5254705715257404  0.22508975859715502  0.46831977921255286  1.0000
  O   O573      1.0  0.3588025914995721  0.2749100409377513  0.4683189367290654  1.0000
  O   O574      1.0  0.47453297553982243  0.2250909973831413  0.6349913350680105  1.0000
  O   O575      1.0  0.5584238549751419  0.025465217006919613  0.3849913235993768  1.0000
  O   O576      1.0  0.6082401537839035  0.14119539833521358  0.5516549165347899  1.0000
  O   O577      1.0  0.6143907814627279  0.02173335624552019  0.6426904543584074  1.0000
  O   O578      1.0  0.4782641347054881  0.28105654115375767  0.5593559878378157  1.0000
  O   O579      1.0  0.3550649133270164  0.21895314064578308  0.3926859113574464  1.0000
  O   O580      1.0  0.552283945135781  0.1449332794027668  0.47601985154780524  1.0000
  O   O581      1.0  0.38561645847464326  0.021733284527452  0.4760193110934764  1.0000
  O   O582      1.0  0.614388115329742  0.3116011431627552  0.47602346972842857  1.0000
  O   O583      1.0  0.6449322220445715  0.21894432864095684  0.5593574066140015  1.0000
  O   O584      1.0  0.5217331368233119  0.2810480594538628  0.3926858973647384  1.0000
  O   O585      1.0  0.33333079561515855  0.16666689110104918  0.5047789739205945  1.0000
  O   O586      1.0  0.3333317269321647  3.424945097437026e-06  0.4214455972890661  1.0000
  O   O587      1.0  0.3333341275604425  0.16666675129660707  0.33811324377559304  1.0000
  O   O588      1.0  0.49999954928558393  0.16666328369744757  0.4214459481180043  1.0000
  O   O589      1.0  0.40886678806145393  0.12468329583409879  0.5085857510764619  1.0000
  O   O590      1.0  0.5419794742263423  0.2422049721037884  0.5919215464847025  1.0000
  O   O591      1.0  0.45801704402958554  0.09113106628617616  0.5919219187361808  1.0000
  O   O592      1.0  0.4244651701926692  0.04198091291021936  0.34192169231689823  1.0000
  O   O593      1.0  0.5911317255893855  0.1246851708152254  0.34192153583250834  1.0000
  O   O594      1.0  0.575535184603586  0.04198283062710462  0.5085872685422157  1.0000
  O   O595      1.0  0.3753164853176811  0.2577959433554117  0.5919200049266942  1.0000
  O   O596      1.0  0.6246842868701995  0.07553359953626478  0.5919207833455041  1.0000
  O   O597      1.0  0.6412002000388424  0.27490880411329055  0.634988938069823  1.0000
  O   O598      1.0  0.5584226090883231  0.30786596374408237  0.551655917887842  1.0000
  O   O599      1.0  0.44157333287563655  0.025472555272133632  0.5516509704771174  1.0000
  O   O600      1.0  0.35880630521383594  0.05842412401267708  0.6349858504501343  1.0000
  O   O601      1.0  0.5254712801959462  0.10824245111979891  0.6349873083461306  1.0000
  O   O602      1.0  0.6412003400750288  0.05842535809897935  0.46832513799691633  1.0000
  O   O603      1.0  0.391756163433877  0.1921331911905021  0.5516548922982965  1.0000
  O   O604      1.0  0.4415759971216919  0.30786066949017205  0.38498723443452665  1.0000
  O   O605      1.0  0.44772115816604546  0.1883983706788169  0.4760225596711209  1.0000
  O   O606      1.0  0.6449324881091026  0.1143893635117971  0.392690880340781  1.0000
  O   O607      1.0  0.5217306960668967  0.052282403260682925  0.5593530612403902  1.0000
  O   O608      1.0  0.38561658646535085  0.3115997457681073  0.642686662961725  1.0000
  O   O609      1.0  0.5522833470962059  0.18839991993636326  0.6426867223046305  1.0000
  O   O610      1.0  0.4477213250994155  0.14493340691625448  0.6426905106679625  1.0000
  O   O611      1.0  0.4782660347163575  0.05227620343130853  0.3926913252838018  1.0000
  O   O612      1.0  0.3550641312060699  0.11438399418269127  0.5593528629285628  1.0000
  O   O613      1.0  0.5000011320887379  0.9999996974087344  0.33811293701596656  1.0000
  O   O614      1.0  0.4999989433810754  0.16666741585214284  0.5881133727775951  1.0000
  O   O615      1.0  0.5000000061595499  0.9999992985970371  0.5047779908296718  1.0000
  O   O616      1.0  0.333334123609657  0.9999988389400678  0.5881118701203143  1.0000
  Li  Li177     1.0  0.6060064073550218  0.22267505118986802  0.9433716703560145  1.0000
  Li  Li178     1.0  0.6106602063922856  0.2726757946396533  0.8600394037429426  1.0000
  Li  Li179     1.0  0.5560053910429559  0.22732367107412238  0.6933701590928353  1.0000
  Li  Li180     1.0  0.5606566134277848  0.27733043677844077  0.7767041734867393  1.0000
  Li  Li181     1.0  0.560657039322743  0.0560044112154763  0.9433682003024506  1.0000
  Li  Li182     1.0  0.6060096703841006  0.11066130460121251  0.7767061972171081  1.0000
  Li  Li183     1.0  0.610659391253091  0.06065817393516395  0.6933727227944293  1.0000
  Li  Li184     1.0  0.5560023199958051  0.10601058798971398  0.8600360085186688  1.0000
  Li  Li185     1.0  0.4393437059920865  0.056004101738292456  0.7767082102870995  1.0000
  Li  Li186     1.0  0.4439910426170701  0.10600763941005503  0.6933728720284386  1.0000
  Li  Li187     1.0  0.38933242317982336  0.06065591819475505  0.860035456513454  1.0000
  Li  Li188     1.0  0.3939910184935882  0.11066268582789328  0.9433677931413759  1.0000
  Li  Li189     1.0  0.3939907295460073  0.22267259747914608  0.7767011854671333  1.0000
  Li  Li190     1.0  0.4393441195412906  0.2773260888926148  0.9433728209397385  1.0000
  Li  Li191     1.0  0.4439914469067628  0.22732430208702573  0.8600363749617487  1.0000
  Li  Li192     1.0  0.389338135890141  0.27267758119403085  0.6933690738940543  1.0000
  B   B353      1.0  0.6103211279316174  0.3073226464589546  0.9842720440069362  1.0000
  B   B354      1.0  0.5260080852645798  0.2769873162152556  0.9009386328191994  1.0000
  B   B355      1.0  0.640654493806187  0.22301967880615778  0.7342695398647454  1.0000
  B   B356      1.0  0.5563501920949275  0.1926771970115396  0.8176033575202512  1.0000
  B   B357      1.0  0.38968287796933876  0.30732263530546644  0.8176018606648487  1.0000
  B   B358      1.0  0.44365254916489305  0.19267748197311352  0.984272786577592  1.0000
  B   B359      1.0  0.35934325414544827  0.22301284303114757  0.9009385547172978  1.0000
  B   B360      1.0  0.47398941732912303  0.2769805965702347  0.734269416802682  1.0000
  B   B361      1.0  0.5384757668557326  0.3177562023199463  0.6956919047674948  1.0000
  B   B362      1.0  0.34890957295802866  0.03847691109754639  0.7790254006729506  1.0000
  B   B363      1.0  0.6510910073533251  0.294860690029223  0.7790243008574985  1.0000
  B   B364      1.0  0.6281895335763751  0.18224037767644755  0.8623595481004616  1.0000
  B   B365      1.0  0.6281917182058939  0.15109359674318934  0.695692535101842  1.0000
  B   B366      1.0  0.3718080029853845  0.1822443661962801  0.695692589764526  1.0000
  B   B367      1.0  0.5155762294320877  0.12818974631632435  0.7790258473972884  1.0000
  B   B368      1.0  0.4844258027668032  0.20513934072267184  0.7790247466496735  1.0000
  B   B369      1.0  0.4436519971952664  0.14065449199335245  0.8176054499916615  1.0000
  B   B370      1.0  0.35934313878961077  0.11032153517016274  0.7342736394465553  1.0000
  B   B371      1.0  0.4739866849150689  0.05635092207733839  0.900935698321215  1.0000
  B   B372      1.0  0.38968471363544793  0.0260103822547753  0.9842697511836476  1.0000
  B   B373      1.0  0.5563508964048504  0.14065601568268402  0.9842701960568102  1.0000
  B   B374      1.0  0.6103196098515621  0.026011700304675513  0.8176062947697836  1.0000
  B   B375      1.0  0.5260100727365503  0.05634498366722527  0.7342735021047778  1.0000
  B   B376      1.0  0.6406538525067426  0.11031556026521284  0.9009367520944122  1.0000
  B   B377      1.0  0.37180610027304944  0.1510903548300618  0.8623572070521931  1.0000
  B   B378      1.0  0.515575151844286  0.20514218298301626  0.9456925596131053  1.0000
  B   B379      1.0  0.48442567334473824  0.12819159687286294  0.9456927378493776  1.0000
  B   B380      1.0  0.4615253706701282  0.015572592219273767  0.695692552465834  1.0000
  B   B381      1.0  0.46152350751227933  0.31776004519086515  0.8623567953408201  1.0000
  B   B382      1.0  0.5384739401221953  0.015575873713664425  0.8623578121248016  1.0000
  B   B383      1.0  0.3489101528338742  0.2948574506424792  0.9456910173590855  1.0000
  B   B384      1.0  0.6510940096852234  0.03847447720821817  0.945691558383276  1.0000
  O   O617      1.0  0.5755376893367224  0.2913510265691717  0.6752537581965291  1.0000
  O   O618      1.0  0.3753162510863382  0.075538302548417  0.75858815010217  1.0000
  O   O619      1.0  0.6246820752759397  0.257801410950601  0.7585860712348028  1.0000
  O   O620      1.0  0.5911289314327676  0.2086491195326743  0.841923097842845  1.0000
  O   O621      1.0  0.42446451894886006  0.2913508455099498  0.8419185684023217  1.0000
  O   O622      1.0  0.40886993247159287  0.20864956235822443  0.6752549214198256  1.0000
  O   O623      1.0  0.5419823557785286  0.0911280018683467  0.7585886752582724  1.0000
  O   O624      1.0  0.4580181519316087  0.24219944045408492  0.7585868804440499  1.0000
  O   O625      1.0  0.47453361387935467  0.10824106573125758  0.8016584822117004  1.0000
  O   O626      1.0  0.39175629126132194  0.14120257955139343  0.7183257615125583  1.0000
  O   O627      1.0  0.6082420369432113  0.19213823332825303  0.7183210659418452  1.0000
  O   O628      1.0  0.5254705715257403  0.22508975859715502  0.8016531125458861  1.0000
  O   O629      1.0  0.3588025914995721  0.2749100409377513  0.8016522700623988  1.0000
  O   O630      1.0  0.4745329755398224  0.22509099738314134  0.9683246684013439  1.0000
  O   O631      1.0  0.5584238549751419  0.025465217006919613  0.7183246569327103  1.0000
  O   O632      1.0  0.6082401537839035  0.14119539833521358  0.8849882498681232  1.0000
  O   O633      1.0  0.6143907814627279  0.021733356245520183  0.9760237876917409  1.0000
  O   O634      1.0  0.47826413470548806  0.2810565411537578  0.892689321171149  1.0000
  O   O635      1.0  0.3550649133270164  0.2189531406457831  0.7260192446907797  1.0000
  O   O636      1.0  0.5522839451357809  0.1449332794027668  0.8093531848811385  1.0000
  O   O637      1.0  0.3856164584746432  0.021733284527452  0.8093526444268098  1.0000
  O   O638      1.0  0.6143881153297418  0.3116011431627552  0.8093568030617619  1.0000
  O   O639      1.0  0.6449322220445713  0.2189443286409569  0.8926907399473348  1.0000
  O   O640      1.0  0.5217331368233119  0.2810480594538628  0.7260192306980718  1.0000
  O   O641      1.0  0.3333307956151585  0.1666668911010492  0.8381123072539276  1.0000
  O   O642      1.0  0.3333317269321646  3.424945097437026e-06  0.7547789306223995  1.0000
  O   O643      1.0  0.33333412756044245  0.16666675129660713  0.6714465771089264  1.0000
  O   O644      1.0  0.4999995492855839  0.16666328369744757  0.7547792814513378  1.0000
  O   O645      1.0  0.40886678806145393  0.12468329583409879  0.8419190844097952  1.0000
  O   O646      1.0  0.5419794742263423  0.2422049721037884  0.9252548798180359  1.0000
  O   O647      1.0  0.4580170440295855  0.09113106628617614  0.9252552520695143  1.0000
  O   O648      1.0  0.42446517019266916  0.04198091291021935  0.6752550256502317  1.0000
  O   O649      1.0  0.5911317255893855  0.1246851708152254  0.6752548691658417  1.0000
  O   O650      1.0  0.5755351846035859  0.04198283062710462  0.8419206018755491  1.0000
  O   O651      1.0  0.375316485317681  0.2577959433554118  0.9252533382600274  1.0000
  O   O652      1.0  0.6246842868701994  0.07553359953626476  0.9252541166788374  1.0000
  O   O653      1.0  0.6412002000388423  0.27490880411329055  0.9683222714031564  1.0000
  O   O654      1.0  0.558422609088323  0.3078659637440824  0.8849892512211753  1.0000
  O   O655      1.0  0.44157333287563655  0.025472555272133626  0.8849843038104508  1.0000
  O   O656      1.0  0.35880630521383594  0.05842412401267708  0.9683191837834676  1.0000
  O   O657      1.0  0.5254712801959461  0.10824245111979891  0.9683206416794639  1.0000
  O   O658      1.0  0.6412003400750288  0.058425358098979335  0.8016584713302497  1.0000
  O   O659      1.0  0.3917561634338769  0.1921331911905021  0.8849882256316298  1.0000
  O   O660      1.0  0.4415759971216919  0.30786066949017205  0.71832056776786  1.0000
  O   O661      1.0  0.4477211581660454  0.1883983706788169  0.8093558930044541  1.0000
  O   O662      1.0  0.6449324881091025  0.11438936351179708  0.7260242136741142  1.0000
  O   O663      1.0  0.5217306960668967  0.052282403260682925  0.8926863945737236  1.0000
  O   O664      1.0  0.38561658646535074  0.3115997457681073  0.9760199962950584  1.0000
  O   O665      1.0  0.5522833470962059  0.18839991993636326  0.9760200556379639  1.0000
  O   O666      1.0  0.4477213250994154  0.14493340691625448  0.9760238440012957  1.0000
  O   O667      1.0  0.4782660347163574  0.05227620343130853  0.7260246586171352  1.0000
  O   O668      1.0  0.3550641312060699  0.11438399418269127  0.8926861962618962  1.0000
  O   O669      1.0  0.5000011320887379  0.9999996974087344  0.6714462703492999  1.0000
  O   O670      1.0  0.49999894338107537  0.16666741585214284  0.9214467061109285  1.0000
  O   O671      1.0  0.5000000061595499  0.9999992985970371  0.838111324163005  1.0000
  O   O672      1.0  0.3333341236096569  0.9999988389400678  0.9214452034536474  1.0000
  Li  Li193     1.0  0.6060064073550218  0.5560083845232013  0.2767050036893479  1.0000
  Li  Li194     1.0  0.6106602063922855  0.6060091279729867  0.193372737076276  1.0000
  Li  Li195     1.0  0.556005391042956  0.5606570044074558  0.026703492426168665  1.0000
  Li  Li196     1.0  0.5606566134277849  0.6106637701117741  0.1100375068200727  1.0000
  Li  Li197     1.0  0.560657039322743  0.3893377445488097  0.276701533635784  1.0000
  Li  Li198     1.0  0.6060096703841006  0.4439946379345459  0.11003953055044138  1.0000
  Li  Li199     1.0  0.610659391253091  0.3939915072684973  0.026706056127762695  1.0000
  Li  Li200     1.0  0.5560023199958051  0.4393439213230473  0.19336934185200208  1.0000
  Li  Li201     1.0  0.4393437059920866  0.38933743507162577  0.11004154362043282  1.0000
  Li  Li202     1.0  0.4439910426170702  0.43934097274338835  0.026706205361771932  1.0000
  Li  Li203     1.0  0.3893324231798234  0.39398925152808845  0.1933687898467874  1.0000
  Li  Li204     1.0  0.3939910184935882  0.4439960191612266  0.27670112647470924  1.0000
  Li  Li205     1.0  0.39399072954600733  0.5560059308124794  0.11003451880046668  1.0000
  Li  Li206     1.0  0.43934411954129066  0.6106594222259483  0.2767061542730718  1.0000
  Li  Li207     1.0  0.4439914469067628  0.5606576354203591  0.193369708295082  1.0000
  Li  Li208     1.0  0.389338135890141  0.6060109145273642  0.026702407227387735  1.0000
  B   B385      1.0  0.6103211279316174  0.6406559797922878  0.31760537734026956  1.0000
  B   B386      1.0  0.5260080852645798  0.610320649548589  0.23427196615253285  1.0000
  B   B387      1.0  0.6406544938061871  0.5563530121394912  0.0676028731980788  1.0000
  B   B388      1.0  0.5563501920949276  0.526010530344873  0.15093669085358447  1.0000
  B   B389      1.0  0.38968287796933887  0.6406559686387998  0.1509351939981822  1.0000
  B   B390      1.0  0.4436525491648931  0.5260108153064469  0.3176061199109253  1.0000
  B   B391      1.0  0.3593432541454483  0.5563461763644809  0.23427188805063118  1.0000
  B   B392      1.0  0.47398941732912303  0.610313929903568  0.06760275013601529  1.0000
  B   B393      1.0  0.5384757668557326  0.6510895356532794  0.02902523810082815  1.0000
  B   B394      1.0  0.34890957295802866  0.37181024443087973  0.11235873400628393  1.0000
  B   B395      1.0  0.6510910073533254  0.6281940233625564  0.11235763419083189  1.0000
  B   B396      1.0  0.6281895335763751  0.5155737110097809  0.1956928814337949  1.0000
  B   B397      1.0  0.6281917182058939  0.4844269300765226  0.029025868435175337  1.0000
  B   B398      1.0  0.3718080029853845  0.5155776995296134  0.029025923097859296  1.0000
  B   B399      1.0  0.5155762294320877  0.4615230796496577  0.1123591807306217  1.0000
  B   B400      1.0  0.4844258027668032  0.5384726740560052  0.1123580799830067  1.0000
  B   B401      1.0  0.44365199719526655  0.4739878253266858  0.15093878332499477  1.0000
  B   B402      1.0  0.35934313878961077  0.44365486850349606  0.06760697277988867  1.0000
  B   B403      1.0  0.47398668491506896  0.38968425541067175  0.23426903165454835  1.0000
  B   B404      1.0  0.38968471363544793  0.3593437155881087  0.317603084516981  1.0000
  B   B405      1.0  0.5563508964048504  0.47398934901601736  0.31760352939014364  1.0000
  B   B406      1.0  0.610319609851562  0.3593450336380089  0.15093962810311706  1.0000
  B   B407      1.0  0.5260100727365504  0.3896783170005586  0.06760683543811108  1.0000
  B   B408      1.0  0.6406538525067426  0.4436488935985462  0.23427008542774552  1.0000
  B   B409      1.0  0.3718061002730495  0.4844236881633952  0.19569054038552644  1.0000
  B   B410      1.0  0.515575151844286  0.5384755163163496  0.2790258929464386  1.0000
  B   B411      1.0  0.48442567334473824  0.4615249302061963  0.2790260711827108  1.0000
  B   B412      1.0  0.4615253706701282  0.3489059255526071  0.029025885799167303  1.0000
  B   B413      1.0  0.46152350751227933  0.6510933785241986  0.19569012867415342  1.0000
  B   B414      1.0  0.5384739401221953  0.34890920704699785  0.1956911454581349  1.0000
  B   B415      1.0  0.3489101528338742  0.6281907839758126  0.27902435069241865  1.0000
  B   B416      1.0  0.6510940096852234  0.3718078105415515  0.27902489171660927  1.0000
  O   O673      1.0  0.5755376893367224  0.624684359902505  0.008587091529862373  1.0000
  O   O674      1.0  0.3753162510863383  0.4088716358817504  0.09192148343550326  1.0000
  O   O675      1.0  0.6246820752759398  0.5911347442839344  0.09191940456813627  1.0000
  O   O676      1.0  0.5911289314327676  0.5419824528660077  0.1752564311761783  1.0000
  O   O677      1.0  0.4244645189488601  0.624684178843283  0.17525190173565505  1.0000
  O   O678      1.0  0.40886993247159287  0.5419828956915578  0.008588254753158886  1.0000
  O   O679      1.0  0.5419823557785287  0.42446133520168006  0.09192200859160571  1.0000
  O   O680      1.0  0.4580181519316087  0.5755327737874183  0.09192021377738326  1.0000
  O   O681      1.0  0.4745336138793547  0.44157439906459095  0.13499181554503376  1.0000
  O   O682      1.0  0.39175629126132194  0.4745359128847267  0.0516590948458917  1.0000
  O   O683      1.0  0.6082420369432113  0.5254715666615863  0.05165439927517849  1.0000
  O   O684      1.0  0.5254705715257403  0.5584230919304883  0.1349864458792195  1.0000
  O   O685      1.0  0.3588025914995721  0.6082433742710847  0.1349856033957321  1.0000
  O   O686      1.0  0.47453297553982243  0.5584243307164747  0.3016580017346772  1.0000
  O   O687      1.0  0.5584238549751419  0.358798550340253  0.05165799026604356  1.0000
  O   O688      1.0  0.6082401537839035  0.474528731668547  0.21832158320145653  1.0000
  O   O689      1.0  0.614390781462728  0.3550666895788535  0.3093571210250741  1.0000
  O   O690      1.0  0.4782641347054881  0.614389874487091  0.22602265450448236  1.0000
  O   O691      1.0  0.3550649133270164  0.5522864739791165  0.0593525780241131  1.0000
  O   O692      1.0  0.552283945135781  0.47826661273610016  0.1426865182144719  1.0000
  O   O693      1.0  0.38561645847464326  0.3550666178607853  0.14268597776014308  1.0000
  O   O694      1.0  0.6143881153297419  0.6449344764960885  0.14269013639509529  1.0000
  O   O695      1.0  0.6449322220445712  0.5522776619742903  0.22602407328066815  1.0000
  O   O696      1.0  0.5217331368233119  0.6143813927871963  0.05935256403140514  1.0000
  O   O697      1.0  0.3333307956151585  0.5000002244343826  0.17144564058726106  1.0000
  O   O698      1.0  0.3333317269321646  0.33333675827843084  0.08811226395573275  1.0000
  O   O699      1.0  0.3333341275604425  0.5000000846299405  0.004779910442259715  1.0000
  O   O700      1.0  0.4999995492855839  0.49999661703078097  0.088112614784671  1.0000
  O   O701      1.0  0.40886678806145393  0.4580166291674321  0.17525241774312855  1.0000
  O   O702      1.0  0.5419794742263423  0.5755383054371218  0.2585882131513692  1.0000
  O   O703      1.0  0.4580170440295855  0.42446439961950955  0.25858858540284757  1.0000
  O   O704      1.0  0.4244651701926692  0.37531424624355275  0.008588358983564895  1.0000
  O   O705      1.0  0.5911317255893856  0.45801850414855877  0.008588202499175007  1.0000
  O   O706      1.0  0.575535184603586  0.375316163960438  0.17525393520888238  1.0000
  O   O707      1.0  0.3753164853176811  0.5911292766887452  0.25858667159336085  1.0000
  O   O708      1.0  0.6246842868701994  0.40886693286959813  0.2585874500121708  1.0000
  O   O709      1.0  0.6412002000388424  0.6082421374466239  0.3016556047364897  1.0000
  O   O710      1.0  0.558422609088323  0.6411992970774156  0.2183225845545087  1.0000
  O   O711      1.0  0.44157333287563655  0.35880588860546697  0.21831763714378408  1.0000
  O   O712      1.0  0.35880630521383594  0.39175745734601036  0.301652517116801  1.0000
  O   O713      1.0  0.5254712801959461  0.4415757844531322  0.30165397501279734  1.0000
  O   O714      1.0  0.6412003400750288  0.39175869143231273  0.134991804663583  1.0000
  O   O715      1.0  0.391756163433877  0.5254665245238356  0.21832155896496316  1.0000
  O   O716      1.0  0.4415759971216919  0.6411940028235052  0.05165390110119334  1.0000
  O   O717      1.0  0.44772115816604546  0.5217317040121503  0.14268922633778758  1.0000
  O   O718      1.0  0.6449324881091026  0.4477226968451305  0.05935754700744762  1.0000
  O   O719      1.0  0.5217306960668967  0.38561573659401627  0.2260197279070569  1.0000
  O   O720      1.0  0.38561658646535085  0.6449330791014407  0.3093533296283917  1.0000
  O   O721      1.0  0.5522833470962059  0.5217332532696967  0.30935338897129716  1.0000
  O   O722      1.0  0.4477213250994155  0.4782667402495879  0.30935717733462903  1.0000
  O   O723      1.0  0.4782660347163574  0.3856095367646419  0.059357991950468494  1.0000
  O   O724      1.0  0.3550641312060699  0.44771732751602467  0.22601952959522953  1.0000
  O   O725      1.0  0.5000011320887379  0.3333330307420678  0.004779603682633247  1.0000
  O   O726      1.0  0.49999894338107537  0.5000007491854762  0.25478003944426186  1.0000
  O   O727      1.0  0.5000000061595499  0.33333263193037044  0.17144465749633842  1.0000
  O   O728      1.0  0.333334123609657  0.3333321722734012  0.25477853678698087  1.0000
  Li  Li209     1.0  0.6060064073550219  0.5560083845232014  0.6100383370226813  1.0000
  Li  Li210     1.0  0.6106602063922855  0.6060091279729866  0.5267060704096094  1.0000
  Li  Li211     1.0  0.556005391042956  0.5606570044074557  0.360036825759502  1.0000
  Li  Li212     1.0  0.5606566134277849  0.6106637701117742  0.443370840153406  1.0000
  Li  Li213     1.0  0.560657039322743  0.3893377445488097  0.6100348669691175  1.0000
  Li  Li214     1.0  0.6060096703841006  0.4439946379345459  0.4433728638837747  1.0000
  Li  Li215     1.0  0.6106593912530912  0.3939915072684973  0.36003938946109604  1.0000
  Li  Li216     1.0  0.5560023199958052  0.43934392132304734  0.5267026751853353  1.0000
  Li  Li217     1.0  0.4393437059920866  0.38933743507162577  0.44337487695376615  1.0000
  Li  Li218     1.0  0.4439910426170702  0.4393409727433884  0.36003953869510524  1.0000
  Li  Li219     1.0  0.3893324231798234  0.39398925152808845  0.5267021231801207  1.0000
  Li  Li220     1.0  0.39399101849358825  0.4439960191612266  0.6100344598080426  1.0000
  Li  Li221     1.0  0.39399072954600733  0.5560059308124794  0.4433678521338  1.0000
  Li  Li222     1.0  0.43934411954129066  0.610659422225948  0.6100394876064053  1.0000
  Li  Li223     1.0  0.4439914469067628  0.5606576354203591  0.5267030416284154  1.0000
  Li  Li224     1.0  0.38933813589014105  0.6060109145273642  0.3600357405607211  1.0000
  B   B417      1.0  0.6103211279316174  0.6406559797922879  0.6509387106736029  1.0000
  B   B418      1.0  0.5260080852645798  0.610320649548589  0.5676052994858662  1.0000
  B   B419      1.0  0.6406544938061871  0.5563530121394912  0.40093620653141215  1.0000
  B   B420      1.0  0.5563501920949276  0.5260105303448729  0.48427002418691784  1.0000
  B   B421      1.0  0.38968287796933887  0.6406559686387998  0.48426852733151554  1.0000
  B   B422      1.0  0.4436525491648931  0.5260108153064469  0.6509394532442587  1.0000
  B   B423      1.0  0.3593432541454483  0.5563461763644809  0.5676052213839645  1.0000
  B   B424      1.0  0.4739894173291232  0.610313929903568  0.4009360834693486  1.0000
  B   B425      1.0  0.5384757668557327  0.6510895356532796  0.3623585714341615  1.0000
  B   B426      1.0  0.3489095729580287  0.37181024443087984  0.4456920673396173  1.0000
  B   B427      1.0  0.6510910073533251  0.6281940233625564  0.4456909675241652  1.0000
  B   B428      1.0  0.6281895335763751  0.5155737110097809  0.5290262147671283  1.0000
  B   B429      1.0  0.628191718205894  0.48442693007652277  0.3623592017685087  1.0000
  B   B430      1.0  0.3718080029853846  0.5155776995296134  0.3623592564311926  1.0000
  B   B431      1.0  0.5155762294320877  0.4615230796496577  0.4456925140639551  1.0000
  B   B432      1.0  0.48442580276680314  0.5384726740560052  0.44569141331634005  1.0000
  B   B433      1.0  0.44365199719526655  0.4739878253266858  0.48427211665832814  1.0000
  B   B434      1.0  0.35934313878961077  0.44365486850349606  0.400940306113222  1.0000
  B   B435      1.0  0.47398668491506896  0.38968425541067175  0.5676023649878816  1.0000
  B   B436      1.0  0.38968471363544793  0.3593437155881087  0.6509364178503143  1.0000
  B   B437      1.0  0.5563508964048504  0.47398934901601736  0.6509368627234771  1.0000
  B   B438      1.0  0.6103196098515621  0.3593450336380089  0.48427296143645043  1.0000
  B   B439      1.0  0.5260100727365504  0.3896783170005586  0.40094016877144445  1.0000
  B   B440      1.0  0.6406538525067426  0.4436488935985462  0.5676034187610788  1.0000
  B   B441      1.0  0.3718061002730495  0.48442368816339515  0.5290238737188598  1.0000
  B   B442      1.0  0.515575151844286  0.5384755163163496  0.6123592262797719  1.0000
  B   B443      1.0  0.48442567334473824  0.4615249302061963  0.6123594045160442  1.0000
  B   B444      1.0  0.4615253706701282  0.3489059255526071  0.36235921913250063  1.0000
  B   B445      1.0  0.4615235075122794  0.6510933785241985  0.5290234620074867  1.0000
  B   B446      1.0  0.5384739401221953  0.34890920704699785  0.5290244787914683  1.0000
  B   B447      1.0  0.3489101528338742  0.6281907839758126  0.6123576840257521  1.0000
  B   B448      1.0  0.6510940096852234  0.3718078105415516  0.6123582250499426  1.0000
  O   O729      1.0  0.5755376893367226  0.624684359902505  0.34192042486319574  1.0000
  O   O730      1.0  0.3753162510863383  0.40887163588175035  0.42525481676883664  1.0000
  O   O731      1.0  0.6246820752759398  0.5911347442839345  0.42525273790146956  1.0000
  O   O732      1.0  0.5911289314327676  0.5419824528660077  0.5085897645095117  1.0000
  O   O733      1.0  0.4244645189488601  0.624684178843283  0.5085852350689885  1.0000
  O   O734      1.0  0.40886993247159287  0.5419828956915578  0.34192158808649226  1.0000
  O   O735      1.0  0.5419823557785287  0.42446133520168006  0.425255341924939  1.0000
  O   O736      1.0  0.4580181519316087  0.5755327737874183  0.42525354711071656  1.0000
  O   O737      1.0  0.47453361387935467  0.44157439906459095  0.4683251488783671  1.0000
  O   O738      1.0  0.391756291261322  0.47453591288472685  0.384992428179225  1.0000
  O   O739      1.0  0.6082420369432114  0.5254715666615863  0.3849877326085118  1.0000
  O   O740      1.0  0.5254705715257404  0.5584230919304883  0.46831977921255286  1.0000
  O   O741      1.0  0.3588025914995721  0.6082433742710847  0.4683189367290655  1.0000
  O   O742      1.0  0.4745329755398224  0.5584243307164747  0.6349913350680105  1.0000
  O   O743      1.0  0.558423854975142  0.358798550340253  0.38499132359937693  1.0000
  O   O744      1.0  0.6082401537839035  0.4745287316685469  0.5516549165347898  1.0000
  O   O745      1.0  0.6143907814627279  0.35506668957885357  0.6426904543584073  1.0000
  O   O746      1.0  0.4782641347054881  0.614389874487091  0.5593559878378157  1.0000
  O   O747      1.0  0.3550649133270164  0.5522864739791165  0.39268591135744646  1.0000
  O   O748      1.0  0.552283945135781  0.47826661273610016  0.47601985154780524  1.0000
  O   O749      1.0  0.38561645847464326  0.3550666178607854  0.4760193110934764  1.0000
  O   O750      1.0  0.614388115329742  0.6449344764960885  0.47602346972842857  1.0000
  O   O751      1.0  0.6449322220445713  0.5522776619742903  0.5593574066140015  1.0000
  O   O752      1.0  0.5217331368233119  0.6143813927871963  0.3926858973647385  1.0000
  O   O753      1.0  0.33333079561515855  0.5000002244343825  0.5047789739205945  1.0000
  O   O754      1.0  0.3333317269321647  0.33333675827843084  0.4214455972890661  1.0000
  O   O755      1.0  0.3333341275604425  0.5000000846299405  0.33811324377559304  1.0000
  O   O756      1.0  0.499999549285584  0.49999661703078097  0.4214459481180044  1.0000
  O   O757      1.0  0.40886678806145393  0.4580166291674322  0.5085857510764619  1.0000
  O   O758      1.0  0.5419794742263423  0.5755383054371217  0.5919215464847026  1.0000
  O   O759      1.0  0.45801704402958554  0.42446439961950955  0.5919219187361808  1.0000
  O   O760      1.0  0.4244651701926692  0.37531424624355275  0.34192169231689823  1.0000
  O   O761      1.0  0.5911317255893855  0.45801850414855877  0.34192153583250834  1.0000
  O   O762      1.0  0.575535184603586  0.375316163960438  0.5085872685422157  1.0000
  O   O763      1.0  0.3753164853176811  0.5911292766887452  0.5919200049266943  1.0000
  O   O764      1.0  0.6246842868701994  0.40886693286959813  0.5919207833455042  1.0000
  O   O765      1.0  0.6412002000388425  0.6082421374466239  0.634988938069823  1.0000
  O   O766      1.0  0.5584226090883231  0.6411992970774157  0.5516559178878421  1.0000
  O   O767      1.0  0.4415733328756365  0.35880588860546697  0.5516509704771175  1.0000
  O   O768      1.0  0.35880630521383594  0.3917574573460104  0.6349858504501344  1.0000
  O   O769      1.0  0.5254712801959461  0.4415757844531323  0.6349873083461307  1.0000
  O   O770      1.0  0.6412003400750288  0.39175869143231273  0.46832513799691633  1.0000
  O   O771      1.0  0.391756163433877  0.5254665245238355  0.5516548922982965  1.0000
  O   O772      1.0  0.4415759971216919  0.6411940028235055  0.3849872344345267  1.0000
  O   O773      1.0  0.44772115816604546  0.5217317040121503  0.476022559671121  1.0000
  O   O774      1.0  0.6449324881091028  0.44772269684513044  0.3926908803407809  1.0000
  O   O775      1.0  0.5217306960668967  0.38561573659401627  0.5593530612403902  1.0000
  O   O776      1.0  0.38561658646535085  0.6449330791014408  0.642686662961725  1.0000
  O   O777      1.0  0.5522833470962059  0.5217332532696967  0.6426867223046304  1.0000
  O   O778      1.0  0.4477213250994155  0.4782667402495878  0.6426905106679625  1.0000
  O   O779      1.0  0.4782660347163575  0.3856095367646419  0.39269132528380185  1.0000
  O   O780      1.0  0.3550641312060699  0.44771732751602467  0.5593528629285629  1.0000
  O   O781      1.0  0.5000011320887379  0.3333330307420678  0.3381129370159666  1.0000
  O   O782      1.0  0.4999989433810754  0.5000007491854762  0.5881133727775952  1.0000
  O   O783      1.0  0.5000000061595499  0.33333263193037044  0.5047779908296718  1.0000
  O   O784      1.0  0.333334123609657  0.3333321722734012  0.5881118701203143  1.0000
  Li  Li225     1.0  0.6060064073550218  0.5560083845232014  0.9433716703560145  1.0000
  Li  Li226     1.0  0.6106602063922856  0.6060091279729866  0.8600394037429427  1.0000
  Li  Li227     1.0  0.556005391042956  0.5606570044074558  0.6933701590928354  1.0000
  Li  Li228     1.0  0.5606566134277849  0.6106637701117741  0.7767041734867394  1.0000
  Li  Li229     1.0  0.5606570393227429  0.3893377445488097  0.9433682003024508  1.0000
  Li  Li230     1.0  0.6060096703841006  0.4439946379345459  0.7767061972171082  1.0000
  Li  Li231     1.0  0.610659391253091  0.3939915072684973  0.6933727227944294  1.0000
  Li  Li232     1.0  0.5560023199958051  0.43934392132304734  0.8600360085186689  1.0000
  Li  Li233     1.0  0.4393437059920865  0.38933743507162577  0.7767082102870996  1.0000
  Li  Li234     1.0  0.4439910426170701  0.4393409727433884  0.6933728720284387  1.0000
  Li  Li235     1.0  0.38933242317982336  0.39398925152808845  0.8600354565134541  1.0000
  Li  Li236     1.0  0.3939910184935882  0.4439960191612266  0.943367793141376  1.0000
  Li  Li237     1.0  0.3939907295460073  0.5560059308124795  0.7767011854671334  1.0000
  Li  Li238     1.0  0.4393441195412906  0.6106594222259483  0.9433728209397385  1.0000
  Li  Li239     1.0  0.4439914469067628  0.5606576354203591  0.8600363749617487  1.0000
  Li  Li240     1.0  0.389338135890141  0.6060109145273642  0.6933690738940544  1.0000
  B   B449      1.0  0.6103211279316173  0.6406559797922878  0.9842720440069362  1.0000
  B   B450      1.0  0.5260080852645798  0.6103206495485889  0.9009386328191995  1.0000
  B   B451      1.0  0.640654493806187  0.5563530121394912  0.7342695398647455  1.0000
  B   B452      1.0  0.5563501920949275  0.5260105303448731  0.8176033575202513  1.0000
  B   B453      1.0  0.38968287796933876  0.6406559686387997  0.8176018606648489  1.0000
  B   B454      1.0  0.44365254916489305  0.5260108153064469  0.984272786577592  1.0000
  B   B455      1.0  0.35934325414544827  0.5563461763644809  0.9009385547172979  1.0000
  B   B456      1.0  0.4739894173291231  0.6103139299035681  0.734269416802682  1.0000
  B   B457      1.0  0.5384757668557326  0.6510895356532798  0.6956919047674948  1.0000
  B   B458      1.0  0.3489095729580287  0.37181024443087984  0.7790254006729506  1.0000
  B   B459      1.0  0.6510910073533254  0.6281940233625564  0.7790243008574986  1.0000
  B   B460      1.0  0.6281895335763751  0.5155737110097809  0.8623595481004616  1.0000
  B   B461      1.0  0.628191718205894  0.48442693007652277  0.695692535101842  1.0000
  B   B462      1.0  0.3718080029853845  0.5155776995296134  0.6956925897645261  1.0000
  B   B463      1.0  0.5155762294320877  0.4615230796496577  0.7790258473972884  1.0000
  B   B464      1.0  0.48442580276680314  0.5384726740560052  0.7790247466496736  1.0000
  B   B465      1.0  0.44365199719526643  0.4739878253266858  0.8176054499916615  1.0000
  B   B466      1.0  0.35934313878961077  0.44365486850349606  0.7342736394465553  1.0000
  B   B467      1.0  0.4739866849150689  0.3896842554106718  0.9009356983212151  1.0000
  B   B468      1.0  0.38968471363544793  0.3593437155881087  0.9842697511836478  1.0000
  B   B469      1.0  0.5563508964048504  0.47398934901601736  0.9842701960568104  1.0000
  B   B470      1.0  0.610319609851562  0.3593450336380089  0.8176062947697837  1.0000
  B   B471      1.0  0.5260100727365504  0.3896783170005586  0.7342735021047778  1.0000
  B   B472      1.0  0.6406538525067426  0.4436488935985462  0.9009367520944123  1.0000
  B   B473      1.0  0.37180610027304944  0.4844236881633952  0.8623572070521932  1.0000
  B   B474      1.0  0.515575151844286  0.5384755163163497  0.9456925596131055  1.0000
  B   B475      1.0  0.48442567334473824  0.4615249302061963  0.9456927378493776  1.0000
  B   B476      1.0  0.4615253706701282  0.3489059255526071  0.6956925524658341  1.0000
  B   B477      1.0  0.46152350751227933  0.6510933785241986  0.8623567953408201  1.0000
  B   B478      1.0  0.5384739401221952  0.34890920704699785  0.8623578121248017  1.0000
  B   B479      1.0  0.3489101528338742  0.6281907839758126  0.9456910173590855  1.0000
  B   B480      1.0  0.6510940096852234  0.3718078105415516  0.945691558383276  1.0000
  O   O785      1.0  0.5755376893367224  0.624684359902505  0.6752537581965291  1.0000
  O   O786      1.0  0.3753162510863382  0.4088716358817504  0.75858815010217  1.0000
  O   O787      1.0  0.6246820752759398  0.5911347442839344  0.7585860712348029  1.0000
  O   O788      1.0  0.5911289314327676  0.5419824528660077  0.841923097842845  1.0000
  O   O789      1.0  0.42446451894886006  0.6246841788432831  0.8419185684023218  1.0000
  O   O790      1.0  0.4088699324715928  0.5419828956915578  0.6752549214198256  1.0000
  O   O791      1.0  0.5419823557785286  0.4244613352016801  0.7585886752582724  1.0000
  O   O792      1.0  0.4580181519316087  0.5755327737874183  0.75858688044405  1.0000
  O   O793      1.0  0.4745336138793546  0.441574399064591  0.8016584822117006  1.0000
  O   O794      1.0  0.39175629126132194  0.4745359128847268  0.7183257615125584  1.0000
  O   O795      1.0  0.6082420369432113  0.5254715666615863  0.7183210659418452  1.0000
  O   O796      1.0  0.5254705715257403  0.5584230919304884  0.8016531125458862  1.0000
  O   O797      1.0  0.3588025914995721  0.6082433742710848  0.8016522700623989  1.0000
  O   O798      1.0  0.4745329755398223  0.5584243307164747  0.9683246684013439  1.0000
  O   O799      1.0  0.5584238549751419  0.35879855034025304  0.7183246569327104  1.0000
  O   O800      1.0  0.6082401537839035  0.474528731668547  0.8849882498681233  1.0000
  O   O801      1.0  0.614390781462728  0.35506668957885357  0.9760237876917409  1.0000
  O   O802      1.0  0.47826413470548806  0.614389874487091  0.8926893211711491  1.0000
  O   O803      1.0  0.3550649133270164  0.5522864739791165  0.7260192446907798  1.0000
  O   O804      1.0  0.552283945135781  0.47826661273610016  0.8093531848811386  1.0000
  O   O805      1.0  0.3856164584746432  0.3550666178607854  0.8093526444268099  1.0000
  O   O806      1.0  0.6143881153297419  0.6449344764960885  0.809356803061762  1.0000
  O   O807      1.0  0.6449322220445713  0.5522776619742903  0.8926907399473348  1.0000
  O   O808      1.0  0.5217331368233119  0.6143813927871963  0.726019230698072  1.0000
  O   O809      1.0  0.3333307956151585  0.5000002244343826  0.8381123072539277  1.0000
  O   O810      1.0  0.3333317269321646  0.33333675827843084  0.7547789306223996  1.0000
  O   O811      1.0  0.33333412756044245  0.5000000846299405  0.6714465771089264  1.0000
  O   O812      1.0  0.49999954928558393  0.49999661703078097  0.7547792814513378  1.0000
  O   O813      1.0  0.40886678806145393  0.4580166291674322  0.8419190844097952  1.0000
  O   O814      1.0  0.5419794742263423  0.5755383054371218  0.9252548798180359  1.0000
  O   O815      1.0  0.4580170440295855  0.42446439961950955  0.9252552520695143  1.0000
  O   O816      1.0  0.42446517019266916  0.37531424624355275  0.6752550256502317  1.0000
  O   O817      1.0  0.5911317255893855  0.45801850414855877  0.6752548691658418  1.0000
  O   O818      1.0  0.575535184603586  0.375316163960438  0.8419206018755491  1.0000
  O   O819      1.0  0.375316485317681  0.591129276688745  0.9252533382600275  1.0000
  O   O820      1.0  0.6246842868701994  0.40886693286959813  0.9252541166788375  1.0000
  O   O821      1.0  0.6412002000388423  0.608242137446624  0.9683222714031564  1.0000
  O   O822      1.0  0.558422609088323  0.6411992970774157  0.8849892512211754  1.0000
  O   O823      1.0  0.4415733328756365  0.35880588860546697  0.8849843038104509  1.0000
  O   O824      1.0  0.35880630521383594  0.39175745734601053  0.9683191837834677  1.0000
  O   O825      1.0  0.5254712801959461  0.4415757844531323  0.9683206416794641  1.0000
  O   O826      1.0  0.6412003400750287  0.39175869143231273  0.8016584713302497  1.0000
  O   O827      1.0  0.3917561634338769  0.5254665245238356  0.8849882256316299  1.0000
  O   O828      1.0  0.4415759971216919  0.6411940028235056  0.7183205677678601  1.0000
  O   O829      1.0  0.4477211581660454  0.5217317040121503  0.8093558930044542  1.0000
  O   O830      1.0  0.6449324881091025  0.4477226968451305  0.7260242136741143  1.0000
  O   O831      1.0  0.5217306960668967  0.38561573659401627  0.8926863945737236  1.0000
  O   O832      1.0  0.38561658646535074  0.6449330791014407  0.9760199962950584  1.0000
  O   O833      1.0  0.5522833470962059  0.5217332532696967  0.9760200556379639  1.0000
  O   O834      1.0  0.4477213250994154  0.4782667402495879  0.9760238440012958  1.0000
  O   O835      1.0  0.4782660347163574  0.38560953676464194  0.7260246586171353  1.0000
  O   O836      1.0  0.3550641312060699  0.44771732751602467  0.8926861962618963  1.0000
  O   O837      1.0  0.5000011320887379  0.3333330307420678  0.6714462703492999  1.0000
  O   O838      1.0  0.49999894338107537  0.5000007491854762  0.9214467061109286  1.0000
  O   O839      1.0  0.5000000061595499  0.33333263193037044  0.838111324163005  1.0000
  O   O840      1.0  0.3333341236096569  0.3333321722734012  0.9214452034536476  1.0000
  Li  Li241     1.0  0.6060064073550219  0.8893417178565348  0.2767050036893479  1.0000
  Li  Li242     1.0  0.6106602063922856  0.9393424613063199  0.193372737076276  1.0000
  Li  Li243     1.0  0.556005391042956  0.893990337740789  0.02670349242616866  1.0000
  Li  Li244     1.0  0.5606566134277849  0.9439971034451073  0.1100375068200727  1.0000
  Li  Li245     1.0  0.560657039322743  0.7226710778821428  0.276701533635784  1.0000
  Li  Li246     1.0  0.6060096703841005  0.7773279712678791  0.11003953055044137  1.0000
  Li  Li247     1.0  0.6106593912530912  0.7273248406018306  0.026706056127762695  1.0000
  Li  Li248     1.0  0.5560023199958052  0.7726772546563806  0.19336934185200208  1.0000
  Li  Li249     1.0  0.4393437059920866  0.722670768404959  0.11004154362043281  1.0000
  Li  Li250     1.0  0.4439910426170702  0.7726743060767216  0.026706205361771932  1.0000
  Li  Li251     1.0  0.3893324231798234  0.7273225848614217  0.1933687898467874  1.0000
  Li  Li252     1.0  0.3939910184935882  0.77732935249456  0.2767011264747093  1.0000
  Li  Li253     1.0  0.39399072954600733  0.8893392641458128  0.11003451880046668  1.0000
  Li  Li254     1.0  0.43934411954129066  0.9439927555592814  0.2767061542730719  1.0000
  Li  Li255     1.0  0.4439914469067628  0.8939909687536923  0.193369708295082  1.0000
  Li  Li256     1.0  0.389338135890141  0.9393442478606974  0.026702407227387735  1.0000
  B   B481      1.0  0.6103211279316174  0.9739893131256212  0.31760537734026956  1.0000
  B   B482      1.0  0.5260080852645798  0.9436539828819221  0.23427196615253285  1.0000
  B   B483      1.0  0.640654493806187  0.8896863454728244  0.0676028731980788  1.0000
  B   B484      1.0  0.5563501920949276  0.8593438636782063  0.15093669085358447  1.0000
  B   B485      1.0  0.38968287796933887  0.9739893019721331  0.1509351939981822  1.0000
  B   B486      1.0  0.4436525491648931  0.8593441486397803  0.31760611991092536  1.0000
  B   B487      1.0  0.3593432541454483  0.8896795096978142  0.23427188805063118  1.0000
  B   B488      1.0  0.4739894173291231  0.9436472632369014  0.06760275013601527  1.0000
  B   B489      1.0  0.5384757668557326  0.9844228689866129  0.029025238100828146  1.0000
  B   B490      1.0  0.3489095729580287  0.7051435777642131  0.11235873400628392  1.0000
  B   B491      1.0  0.6510910073533254  0.9615273566958895  0.11235763419083189  1.0000
  B   B492      1.0  0.6281895335763752  0.8489070443431141  0.1956928814337949  1.0000
  B   B493      1.0  0.6281917182058939  0.817760263409856  0.029025868435175337  1.0000
  B   B494      1.0  0.3718080029853845  0.8489110328629468  0.029025923097859296  1.0000
  B   B495      1.0  0.5155762294320877  0.794856412982991  0.1123591807306217  1.0000
  B   B496      1.0  0.48442580276680314  0.8718060073893386  0.11235807998300669  1.0000
  B   B497      1.0  0.44365199719526655  0.8073211586600191  0.15093878332499477  1.0000
  B   B498      1.0  0.35934313878961077  0.7769882018368293  0.06760697277988867  1.0000
  B   B499      1.0  0.47398668491506907  0.723017588744005  0.23426903165454832  1.0000
  B   B500      1.0  0.38968471363544793  0.6926770489214419  0.317603084516981  1.0000
  B   B501      1.0  0.5563508964048504  0.8073226823493508  0.31760352939014364  1.0000
  B   B502      1.0  0.610319609851562  0.6926783669713421  0.15093962810311706  1.0000
  B   B503      1.0  0.5260100727365504  0.723011650333892  0.06760683543811108  1.0000
  B   B504      1.0  0.6406538525067427  0.7769822269318796  0.23427008542774552  1.0000
  B   B505      1.0  0.3718061002730495  0.8177570214967284  0.19569054038552644  1.0000
  B   B506      1.0  0.515575151844286  0.871808849649683  0.2790258929464386  1.0000
  B   B507      1.0  0.48442567334473824  0.7948582635395297  0.27902607118271083  1.0000
  B   B508      1.0  0.4615253706701282  0.6822392588859404  0.029025885799167303  1.0000
  B   B509      1.0  0.46152350751227933  0.9844267118575318  0.19569012867415342  1.0000
  B   B510      1.0  0.5384739401221952  0.682242540380331  0.1956911454581349  1.0000
  B   B511      1.0  0.3489101528338742  0.9615241173091458  0.27902435069241865  1.0000
  B   B512      1.0  0.6510940096852235  0.7051411438748848  0.27902489171660927  1.0000
  O   O841      1.0  0.5755376893367226  0.9580176932358383  0.008587091529862373  1.0000
  O   O842      1.0  0.3753162510863383  0.7422049692150836  0.09192148343550326  1.0000
  O   O843      1.0  0.6246820752759398  0.9244680776172678  0.09191940456813627  1.0000
  O   O844      1.0  0.5911289314327677  0.8753157861993409  0.1752564311761783  1.0000
  O   O845      1.0  0.4244645189488601  0.9580175121766165  0.17525190173565505  1.0000
  O   O846      1.0  0.4088699324715928  0.875316229024891  0.008588254753158886  1.0000
  O   O847      1.0  0.5419823557785287  0.7577946685350133  0.0919220085916057  1.0000
  O   O848      1.0  0.4580181519316087  0.9088661071207516  0.09192021377738326  1.0000
  O   O849      1.0  0.47453361387935467  0.7749077323979242  0.13499181554503376  1.0000
  O   O850      1.0  0.39175629126132194  0.8078692462180601  0.051659094845891707  1.0000
  O   O851      1.0  0.6082420369432114  0.8588048999949197  0.051654399275178495  1.0000
  O   O852      1.0  0.5254705715257403  0.8917564252638217  0.1349864458792195  1.0000
  O   O853      1.0  0.3588025914995721  0.9415767076044179  0.1349856033957321  1.0000
  O   O854      1.0  0.4745329755398224  0.8917576640498079  0.3016580017346772  1.0000
  O   O855      1.0  0.5584238549751419  0.6921318836735862  0.05165799026604356  1.0000
  O   O856      1.0  0.6082401537839036  0.8078620650018801  0.21832158320145653  1.0000
  O   O857      1.0  0.614390781462728  0.6884000229121868  0.3093571210250741  1.0000
  O   O858      1.0  0.4782641347054881  0.9477232078204245  0.22602265450448236  1.0000
  O   O859      1.0  0.3550649133270164  0.8856198073124496  0.05935257802411309  1.0000
  O   O860      1.0  0.552283945135781  0.8115999460694335  0.1426865182144719  1.0000
  O   O861      1.0  0.38561645847464326  0.6883999511941186  0.14268597776014308  1.0000
  O   O862      1.0  0.6143881153297419  0.9782678098294219  0.14269013639509529  1.0000
  O   O863      1.0  0.6449322220445713  0.8856109953076234  0.22602407328066815  1.0000
  O   O864      1.0  0.5217331368233119  0.9477147261205294  0.05935256403140514  1.0000
  O   O865      1.0  0.3333307956151585  0.8333335577677158  0.17144564058726106  1.0000
  O   O866      1.0  0.3333317269321646  0.666670091611764  0.08811226395573275  1.0000
  O   O867      1.0  0.3333341275604425  0.8333334179632738  0.004779910442259714  1.0000
  O   O868      1.0  0.49999954928558393  0.8333299503641142  0.088112614784671  1.0000
  O   O869      1.0  0.40886678806145393  0.7913499625007655  0.17525241774312855  1.0000
  O   O870      1.0  0.5419794742263423  0.9088716387704551  0.25858821315136926  1.0000
  O   O871      1.0  0.4580170440295855  0.7577977329528428  0.25858858540284757  1.0000
  O   O872      1.0  0.4244651701926692  0.708647579576886  0.008588358983564895  1.0000
  O   O873      1.0  0.5911317255893855  0.791351837481892  0.008588202499175007  1.0000
  O   O874      1.0  0.575535184603586  0.7086494972937712  0.17525393520888236  1.0000
  O   O875      1.0  0.3753164853176811  0.9244626100220785  0.25858667159336085  1.0000
  O   O876      1.0  0.6246842868701995  0.7422002662029314  0.2585874500121708  1.0000
  O   O877      1.0  0.6412002000388423  0.9415754707799572  0.3016556047364898  1.0000
  O   O878      1.0  0.558422609088323  0.974532630410749  0.2183225845545087  1.0000
  O   O879      1.0  0.4415733328756365  0.6921392219388004  0.21831763714378408  1.0000
  O   O880      1.0  0.35880630521383594  0.7250907906793438  0.301652517116801  1.0000
  O   O881      1.0  0.5254712801959461  0.7749091177864657  0.30165397501279734  1.0000
  O   O882      1.0  0.6412003400750288  0.7250920247656459  0.134991804663583  1.0000
  O   O883      1.0  0.391756163433877  0.8587998578571687  0.21832155896496314  1.0000
  O   O884      1.0  0.4415759971216919  0.9745273361568387  0.05165390110119334  1.0000
  O   O885      1.0  0.44772115816604546  0.8550650373454836  0.14268922633778758  1.0000
  O   O886      1.0  0.6449324881091025  0.7810560301784637  0.05935754700744762  1.0000
  O   O887      1.0  0.5217306960668967  0.7189490699273494  0.2260197279070569  1.0000
  O   O888      1.0  0.38561658646535085  0.9782664124347739  0.30935332962839174  1.0000
  O   O889      1.0  0.5522833470962059  0.8550665866030298  0.30935338897129716  1.0000
  O   O890      1.0  0.4477213250994155  0.8116000735829211  0.3093571773346291  1.0000
  O   O891      1.0  0.4782660347163574  0.7189428700979752  0.059357991950468494  1.0000
  O   O892      1.0  0.3550641312060699  0.7810506608493577  0.22601952959522953  1.0000
  O   O893      1.0  0.5000011320887379  0.6666663640754011  0.004779603682633246  1.0000
  O   O894      1.0  0.49999894338107537  0.8333340825188095  0.25478003944426186  1.0000
  O   O895      1.0  0.5000000061595499  0.6666659652637037  0.17144465749633842  1.0000
  O   O896      1.0  0.333334123609657  0.6666655056067343  0.2547785367869809  1.0000
  Li  Li257     1.0  0.6060064073550219  0.8893417178565347  0.6100383370226813  1.0000
  Li  Li258     1.0  0.6106602063922856  0.9393424613063199  0.5267060704096094  1.0000
  Li  Li259     1.0  0.556005391042956  0.893990337740789  0.360036825759502  1.0000
  Li  Li260     1.0  0.5606566134277849  0.9439971034451073  0.4433708401534061  1.0000
  Li  Li261     1.0  0.560657039322743  0.7226710778821428  0.6100348669691174  1.0000
  Li  Li262     1.0  0.6060096703841006  0.7773279712678791  0.4433728638837747  1.0000
  Li  Li263     1.0  0.6106593912530912  0.7273248406018306  0.3600393894610961  1.0000
  Li  Li264     1.0  0.5560023199958051  0.7726772546563806  0.5267026751853354  1.0000
  Li  Li265     1.0  0.4393437059920866  0.722670768404959  0.44337487695376615  1.0000
  Li  Li266     1.0  0.4439910426170702  0.7726743060767216  0.3600395386951053  1.0000
  Li  Li267     1.0  0.3893324231798234  0.7273225848614215  0.5267021231801208  1.0000
  Li  Li268     1.0  0.39399101849358825  0.7773293524945599  0.6100344598080427  1.0000
  Li  Li269     1.0  0.39399072954600733  0.8893392641458128  0.4433678521338  1.0000
  Li  Li270     1.0  0.43934411954129066  0.9439927555592814  0.6100394876064053  1.0000
  Li  Li271     1.0  0.4439914469067628  0.8939909687536922  0.5267030416284154  1.0000
  Li  Li272     1.0  0.38933813589014105  0.9393442478606974  0.3600357405607211  1.0000
  B   B513      1.0  0.6103211279316175  0.973989313125621  0.6509387106736029  1.0000
  B   B514      1.0  0.5260080852645798  0.9436539828819221  0.5676052994858662  1.0000
  B   B515      1.0  0.6406544938061871  0.8896863454728244  0.4009362065314122  1.0000
  B   B516      1.0  0.5563501920949276  0.8593438636782061  0.48427002418691784  1.0000
  B   B517      1.0  0.38968287796933887  0.973989301972133  0.48426852733151554  1.0000
  B   B518      1.0  0.4436525491648931  0.8593441486397801  0.6509394532442586  1.0000
  B   B519      1.0  0.3593432541454483  0.8896795096978142  0.5676052213839645  1.0000
  B   B520      1.0  0.4739894173291231  0.9436472632369013  0.40093608346934867  1.0000
  B   B521      1.0  0.5384757668557326  0.9844228689866128  0.3623585714341615  1.0000
  B   B522      1.0  0.34890957295802866  0.7051435777642129  0.4456920673396173  1.0000
  B   B523      1.0  0.6510910073533251  0.9615273566958895  0.4456909675241652  1.0000
  B   B524      1.0  0.6281895335763751  0.848907044343114  0.5290262147671283  1.0000
  B   B525      1.0  0.6281917182058939  0.817760263409856  0.3623592017685087  1.0000
  B   B526      1.0  0.3718080029853846  0.8489110328629468  0.36235925643119266  1.0000
  B   B527      1.0  0.5155762294320877  0.7948564129829909  0.4456925140639551  1.0000
  B   B528      1.0  0.4844258027668032  0.8718060073893386  0.44569141331634005  1.0000
  B   B529      1.0  0.44365199719526655  0.807321158660019  0.4842721166583281  1.0000
  B   B530      1.0  0.35934313878961077  0.7769882018368293  0.400940306113222  1.0000
  B   B531      1.0  0.47398668491506907  0.723017588744005  0.5676023649878817  1.0000
  B   B532      1.0  0.38968471363544793  0.6926770489214419  0.6509364178503143  1.0000
  B   B533      1.0  0.5563508964048504  0.8073226823493506  0.6509368627234771  1.0000
  B   B534      1.0  0.6103196098515621  0.692678366971342  0.48427296143645043  1.0000
  B   B535      1.0  0.5260100727365504  0.7230116503338919  0.40094016877144445  1.0000
  B   B536      1.0  0.6406538525067427  0.7769822269318795  0.5676034187610789  1.0000
  B   B537      1.0  0.3718061002730495  0.8177570214967284  0.5290238737188598  1.0000
  B   B538      1.0  0.515575151844286  0.8718088496496829  0.6123592262797719  1.0000
  B   B539      1.0  0.48442567334473824  0.7948582635395296  0.6123594045160442  1.0000
  B   B540      1.0  0.4615253706701282  0.6822392588859404  0.3623592191325007  1.0000
  B   B541      1.0  0.4615235075122794  0.9844267118575318  0.5290234620074868  1.0000
  B   B542      1.0  0.5384739401221954  0.682242540380331  0.5290244787914683  1.0000
  B   B543      1.0  0.3489101528338742  0.9615241173091458  0.612357684025752  1.0000
  B   B544      1.0  0.6510940096852234  0.7051411438748847  0.6123582250499426  1.0000
  O   O897      1.0  0.5755376893367226  0.9580176932358383  0.34192042486319574  1.0000
  O   O898      1.0  0.3753162510863383  0.7422049692150836  0.42525481676883664  1.0000
  O   O899      1.0  0.6246820752759397  0.9244680776172677  0.42525273790146967  1.0000
  O   O900      1.0  0.5911289314327676  0.8753157861993409  0.5085897645095118  1.0000
  O   O901      1.0  0.4244645189488601  0.9580175121766163  0.5085852350689883  1.0000
  O   O902      1.0  0.408869932471593  0.875316229024891  0.34192158808649226  1.0000
  O   O903      1.0  0.5419823557785287  0.7577946685350133  0.4252553419249391  1.0000
  O   O904      1.0  0.4580181519316087  0.9088661071207516  0.42525354711071667  1.0000
  O   O905      1.0  0.4745336138793547  0.7749077323979242  0.4683251488783671  1.0000
  O   O906      1.0  0.391756291261322  0.8078692462180599  0.3849924281792251  1.0000
  O   O907      1.0  0.6082420369432114  0.8588048999949197  0.3849877326085118  1.0000
  O   O908      1.0  0.5254705715257404  0.8917564252638216  0.4683197792125529  1.0000
  O   O909      1.0  0.3588025914995721  0.9415767076044179  0.46831893672906544  1.0000
  O   O910      1.0  0.47453297553982243  0.8917576640498077  0.6349913350680106  1.0000
  O   O911      1.0  0.5584238549751419  0.6921318836735862  0.3849913235993769  1.0000
  O   O912      1.0  0.6082401537839035  0.8078620650018801  0.5516549165347899  1.0000
  O   O913      1.0  0.6143907814627279  0.6884000229121868  0.6426904543584074  1.0000
  O   O914      1.0  0.4782641347054881  0.9477232078204244  0.5593559878378157  1.0000
  O   O915      1.0  0.3550649133270164  0.8856198073124496  0.39268591135744646  1.0000
  O   O916      1.0  0.552283945135781  0.8115999460694334  0.47601985154780524  1.0000
  O   O917      1.0  0.38561645847464326  0.6883999511941186  0.4760193110934764  1.0000
  O   O918      1.0  0.6143881153297419  0.9782678098294217  0.47602346972842857  1.0000
  O   O919      1.0  0.6449322220445713  0.8856109953076233  0.5593574066140016  1.0000
  O   O920      1.0  0.5217331368233119  0.9477147261205294  0.39268589736473847  1.0000
  O   O921      1.0  0.33333079561515855  0.8333335577677158  0.5047789739205945  1.0000
  O   O922      1.0  0.3333317269321647  0.666670091611764  0.4214455972890661  1.0000
  O   O923      1.0  0.3333341275604425  0.8333334179632738  0.3381132437755931  1.0000
  O   O924      1.0  0.49999954928558393  0.8333299503641142  0.42144594811800434  1.0000
  O   O925      1.0  0.40886678806145393  0.7913499625007655  0.5085857510764618  1.0000
  O   O926      1.0  0.5419794742263423  0.9088716387704551  0.5919215464847025  1.0000
  O   O927      1.0  0.45801704402958554  0.7577977329528428  0.5919219187361809  1.0000
  O   O928      1.0  0.4244651701926692  0.708647579576886  0.3419216923168983  1.0000
  O   O929      1.0  0.5911317255893855  0.7913518374818919  0.3419215358325084  1.0000
  O   O930      1.0  0.5755351846035859  0.7086494972937712  0.5085872685422158  1.0000
  O   O931      1.0  0.3753164853176811  0.9244626100220783  0.5919200049266942  1.0000
  O   O932      1.0  0.6246842868701995  0.7422002662029314  0.5919207833455041  1.0000
  O   O933      1.0  0.6412002000388424  0.9415754707799572  0.6349889380698232  1.0000
  O   O934      1.0  0.5584226090883231  0.9745326304107489  0.5516559178878422  1.0000
  O   O935      1.0  0.44157333287563655  0.6921392219388003  0.5516509704771174  1.0000
  O   O936      1.0  0.35880630521383594  0.7250907906793437  0.6349858504501344  1.0000
  O   O937      1.0  0.5254712801959462  0.7749091177864655  0.6349873083461307  1.0000
  O   O938      1.0  0.6412003400750288  0.7250920247656459  0.46832513799691633  1.0000
  O   O939      1.0  0.391756163433877  0.8587998578571686  0.5516548922982966  1.0000
  O   O940      1.0  0.4415759971216919  0.9745273361568386  0.38498723443452665  1.0000
  O   O941      1.0  0.44772115816604546  0.8550650373454834  0.4760225596711209  1.0000
  O   O942      1.0  0.6449324881091026  0.7810560301784637  0.39269088034078103  1.0000
  O   O943      1.0  0.5217306960668967  0.7189490699273494  0.5593530612403903  1.0000
  O   O944      1.0  0.38561658646535085  0.9782664124347739  0.642686662961725  1.0000
  O   O945      1.0  0.5522833470962059  0.8550665866030298  0.6426867223046305  1.0000
  O   O946      1.0  0.4477213250994155  0.811600073582921  0.6426905106679623  1.0000
  O   O947      1.0  0.4782660347163575  0.7189428700979751  0.39269132528380185  1.0000
  O   O948      1.0  0.3550641312060699  0.7810506608493579  0.5593528629285629  1.0000
  O   O949      1.0  0.5000011320887379  0.666666364075401  0.3381129370159666  1.0000
  O   O950      1.0  0.4999989433810754  0.8333340825188095  0.5881133727775952  1.0000
  O   O951      1.0  0.5000000061595499  0.6666659652637037  0.5047779908296719  1.0000
  O   O952      1.0  0.333334123609657  0.6666655056067343  0.5881118701203142  1.0000
  Li  Li273     1.0  0.6060064073550218  0.8893417178565347  0.9433716703560148  1.0000
  Li  Li274     1.0  0.6106602063922856  0.9393424613063199  0.8600394037429427  1.0000
  Li  Li275     1.0  0.556005391042956  0.893990337740789  0.6933701590928354  1.0000
  Li  Li276     1.0  0.5606566134277848  0.9439971034451075  0.7767041734867394  1.0000
  Li  Li277     1.0  0.560657039322743  0.722671077882143  0.9433682003024508  1.0000
  Li  Li278     1.0  0.6060096703841005  0.7773279712678791  0.7767061972171081  1.0000
  Li  Li279     1.0  0.610659391253091  0.7273248406018306  0.6933727227944293  1.0000
  Li  Li280     1.0  0.5560023199958051  0.7726772546563806  0.8600360085186688  1.0000
  Li  Li281     1.0  0.4393437059920865  0.7226707684049591  0.7767082102870996  1.0000
  Li  Li282     1.0  0.4439910426170701  0.7726743060767216  0.6933728720284386  1.0000
  Li  Li283     1.0  0.38933242317982336  0.7273225848614217  0.860035456513454  1.0000
  Li  Li284     1.0  0.3939910184935882  0.7773293524945599  0.943367793141376  1.0000
  Li  Li285     1.0  0.3939907295460073  0.8893392641458128  0.7767011854671334  1.0000
  Li  Li286     1.0  0.4393441195412906  0.9439927555592814  0.9433728209397385  1.0000
  Li  Li287     1.0  0.4439914469067628  0.8939909687536923  0.8600363749617487  1.0000
  Li  Li288     1.0  0.389338135890141  0.9393442478606976  0.6933690738940544  1.0000
  B   B545      1.0  0.6103211279316174  0.9739893131256213  0.9842720440069362  1.0000
  B   B546      1.0  0.5260080852645798  0.9436539828819223  0.9009386328191995  1.0000
  B   B547      1.0  0.6406544938061869  0.8896863454728244  0.7342695398647455  1.0000
  B   B548      1.0  0.5563501920949275  0.8593438636782063  0.8176033575202513  1.0000
  B   B549      1.0  0.38968287796933876  0.9739893019721331  0.817601860664849  1.0000
  B   B550      1.0  0.44365254916489305  0.8593441486397803  0.984272786577592  1.0000
  B   B551      1.0  0.35934325414544827  0.8896795096978143  0.9009385547172979  1.0000
  B   B552      1.0  0.47398941732912303  0.9436472632369013  0.734269416802682  1.0000
  B   B553      1.0  0.5384757668557326  0.984422868986613  0.6956919047674948  1.0000
  B   B554      1.0  0.34890957295802866  0.7051435777642131  0.7790254006729506  1.0000
  B   B555      1.0  0.6510910073533251  0.9615273566958896  0.7790243008574986  1.0000
  B   B556      1.0  0.6281895335763752  0.8489070443431141  0.8623595481004617  1.0000
  B   B557      1.0  0.628191718205894  0.817760263409856  0.695692535101842  1.0000
  B   B558      1.0  0.3718080029853845  0.8489110328629468  0.6956925897645261  1.0000
  B   B559      1.0  0.5155762294320877  0.794856412982991  0.7790258473972884  1.0000
  B   B560      1.0  0.4844258027668032  0.8718060073893384  0.7790247466496734  1.0000
  B   B561      1.0  0.44365199719526643  0.8073211586600191  0.8176054499916615  1.0000
  B   B562      1.0  0.35934313878961077  0.7769882018368293  0.7342736394465554  1.0000
  B   B563      1.0  0.47398668491506896  0.723017588744005  0.900935698321215  1.0000
  B   B564      1.0  0.38968471363544793  0.6926770489214419  0.9842697511836478  1.0000
  B   B565      1.0  0.5563508964048504  0.8073226823493508  0.9842701960568104  1.0000
  B   B566      1.0  0.6103196098515621  0.6926783669713421  0.8176062947697837  1.0000
  B   B567      1.0  0.5260100727365503  0.723011650333892  0.7342735021047778  1.0000
  B   B568      1.0  0.6406538525067426  0.7769822269318796  0.9009367520944122  1.0000
  B   B569      1.0  0.37180610027304944  0.8177570214967284  0.8623572070521931  1.0000
  B   B570      1.0  0.515575151844286  0.871808849649683  0.9456925596131053  1.0000
  B   B571      1.0  0.48442567334473824  0.7948582635395297  0.9456927378493776  1.0000
  B   B572      1.0  0.4615253706701282  0.6822392588859405  0.695692552465834  1.0000
  B   B573      1.0  0.46152350751227933  0.9844267118575317  0.8623567953408201  1.0000
  B   B574      1.0  0.5384739401221953  0.6822425403803312  0.8623578121248016  1.0000
  B   B575      1.0  0.3489101528338742  0.9615241173091459  0.9456910173590855  1.0000
  B   B576      1.0  0.6510940096852235  0.7051411438748848  0.945691558383276  1.0000
  O   O953      1.0  0.5755376893367226  0.9580176932358384  0.6752537581965291  1.0000
  O   O954      1.0  0.3753162510863382  0.7422049692150837  0.75858815010217  1.0000
  O   O955      1.0  0.6246820752759398  0.9244680776172678  0.7585860712348029  1.0000
  O   O956      1.0  0.5911289314327676  0.8753157861993409  0.841923097842845  1.0000
  O   O957      1.0  0.42446451894886006  0.9580175121766165  0.8419185684023218  1.0000
  O   O958      1.0  0.40886993247159287  0.875316229024891  0.6752549214198256  1.0000
  O   O959      1.0  0.5419823557785286  0.7577946685350134  0.7585886752582724  1.0000
  O   O960      1.0  0.4580181519316087  0.9088661071207517  0.7585868804440499  1.0000
  O   O961      1.0  0.47453361387935467  0.7749077323979242  0.8016584822117006  1.0000
  O   O962      1.0  0.39175629126132194  0.8078692462180601  0.7183257615125584  1.0000
  O   O963      1.0  0.6082420369432113  0.8588048999949198  0.7183210659418452  1.0000
  O   O964      1.0  0.5254705715257403  0.8917564252638217  0.8016531125458862  1.0000
  O   O965      1.0  0.3588025914995721  0.9415767076044179  0.8016522700623989  1.0000
  O   O966      1.0  0.4745329755398224  0.8917576640498082  0.9683246684013439  1.0000
  O   O967      1.0  0.5584238549751419  0.6921318836735862  0.7183246569327103  1.0000
  O   O968      1.0  0.6082401537839035  0.8078620650018801  0.8849882498681233  1.0000
  O   O969      1.0  0.6143907814627279  0.6884000229121867  0.9760237876917407  1.0000
  O   O970      1.0  0.47826413470548806  0.9477232078204244  0.8926893211711491  1.0000
  O   O971      1.0  0.3550649133270164  0.8856198073124497  0.7260192446907798  1.0000
  O   O972      1.0  0.5522839451357809  0.8115999460694335  0.8093531848811387  1.0000
  O   O973      1.0  0.3856164584746432  0.6883999511941186  0.8093526444268099  1.0000
  O   O974      1.0  0.6143881153297419  0.9782678098294217  0.809356803061762  1.0000
  O   O975      1.0  0.6449322220445715  0.8856109953076235  0.8926907399473348  1.0000
  O   O976      1.0  0.5217331368233119  0.9477147261205295  0.726019230698072  1.0000
  O   O977      1.0  0.3333307956151585  0.8333335577677158  0.8381123072539277  1.0000
  O   O978      1.0  0.3333317269321646  0.6666700916117642  0.7547789306223994  1.0000
  O   O979      1.0  0.33333412756044245  0.8333334179632738  0.6714465771089264  1.0000
  O   O980      1.0  0.4999995492855839  0.8333299503641142  0.7547792814513378  1.0000
  O   O981      1.0  0.40886678806145393  0.7913499625007656  0.8419190844097952  1.0000
  O   O982      1.0  0.5419794742263423  0.9088716387704551  0.925254879818036  1.0000
  O   O983      1.0  0.4580170440295855  0.7577977329528429  0.9252552520695142  1.0000
  O   O984      1.0  0.42446517019266916  0.708647579576886  0.6752550256502317  1.0000
  O   O985      1.0  0.5911317255893855  0.7913518374818921  0.6752548691658417  1.0000
  O   O986      1.0  0.575535184603586  0.7086494972937712  0.8419206018755491  1.0000
  O   O987      1.0  0.375316485317681  0.9244626100220785  0.9252533382600276  1.0000
  O   O988      1.0  0.6246842868701994  0.7422002662029314  0.9252541166788376  1.0000
  O   O989      1.0  0.6412002000388423  0.9415754707799572  0.9683222714031564  1.0000
  O   O990      1.0  0.558422609088323  0.974532630410749  0.8849892512211753  1.0000
  O   O991      1.0  0.44157333287563655  0.6921392219388004  0.8849843038104509  1.0000
  O   O992      1.0  0.35880630521383594  0.7250907906793438  0.9683191837834677  1.0000
  O   O993      1.0  0.5254712801959461  0.7749091177864657  0.9683206416794641  1.0000
  O   O994      1.0  0.6412003400750288  0.7250920247656459  0.8016584713302496  1.0000
  O   O995      1.0  0.3917561634338769  0.8587998578571687  0.8849882256316297  1.0000
  O   O996      1.0  0.4415759971216919  0.9745273361568387  0.7183205677678601  1.0000
  O   O997      1.0  0.4477211581660454  0.8550650373454836  0.8093558930044543  1.0000
  O   O998      1.0  0.6449324881091025  0.7810560301784638  0.7260242136741143  1.0000
  O   O999      1.0  0.5217306960668967  0.7189490699273497  0.8926863945737236  1.0000
  O   O1000     1.0  0.38561658646535074  0.978266412434774  0.9760199962950584  1.0000
  O   O1001     1.0  0.5522833470962059  0.85506658660303  0.9760200556379638  1.0000
  O   O1002     1.0  0.4477213250994154  0.8116000735829212  0.9760238440012957  1.0000
  O   O1003     1.0  0.4782660347163574  0.7189428700979752  0.7260246586171353  1.0000
  O   O1004     1.0  0.3550641312060699  0.7810506608493579  0.8926861962618963  1.0000
  O   O1005     1.0  0.5000011320887379  0.6666663640754013  0.6714462703492999  1.0000
  O   O1006     1.0  0.49999894338107537  0.8333340825188095  0.9214467061109286  1.0000
  O   O1007     1.0  0.5000000061595499  0.6666659652637038  0.838111324163005  1.0000
  O   O1008     1.0  0.3333341236096569  0.6666655056067347  0.9214452034536476  1.0000
  Li  Li289     1.0  0.9393397406883551  0.22267505118986805  0.2767050036893479  1.0000
  Li  Li290     1.0  0.9439935397256188  0.2726757946396533  0.19337273707627603  1.0000
  Li  Li291     1.0  0.8893387243762892  0.2273236710741224  0.02670349242616866  1.0000
  Li  Li292     1.0  0.8939899467611183  0.27733043677844077  0.1100375068200727  1.0000
  Li  Li293     1.0  0.8939903726560763  0.0560044112154763  0.276701533635784  1.0000
  Li  Li294     1.0  0.9393430037174337  0.1106613046012125  0.11003953055044138  1.0000
  Li  Li295     1.0  0.9439927245864245  0.06065817393516395  0.026706056127762695  1.0000
  Li  Li296     1.0  0.8893356533291384  0.10601058798971397  0.19336934185200208  1.0000
  Li  Li297     1.0  0.77267703932542  0.056004101738292456  0.11004154362043282  1.0000
  Li  Li298     1.0  0.7773243759504036  0.10600763941005502  0.026706205361771932  1.0000
  Li  Li299     1.0  0.7226657565131568  0.06065591819475505  0.1933687898467874  1.0000
  Li  Li300     1.0  0.7273243518269216  0.11066268582789326  0.27670112647470924  1.0000
  Li  Li301     1.0  0.7273240628793406  0.22267259747914608  0.11003451880046668  1.0000
  Li  Li302     1.0  0.772677452874624  0.27732608889261473  0.2767061542730719  1.0000
  Li  Li303     1.0  0.7773247802400962  0.22732430208702573  0.193369708295082  1.0000
  Li  Li304     1.0  0.7226714692234744  0.27267758119403085  0.026702407227387735  1.0000
  B   B577      1.0  0.9436544612649508  0.30732264645895446  0.31760537734026956  1.0000
  B   B578      1.0  0.8593414185979131  0.27698731621525563  0.23427196615253287  1.0000
  B   B579      1.0  0.9739878271395203  0.22301967880615778  0.0676028731980788  1.0000
  B   B580      1.0  0.8896835254282609  0.19267719701153962  0.15093669085358447  1.0000
  B   B581      1.0  0.7230162113026722  0.3073226353054664  0.15093519399818223  1.0000
  B   B582      1.0  0.7769858824982264  0.19267748197311352  0.3176061199109253  1.0000
  B   B583      1.0  0.6926765874787818  0.22301284303114755  0.23427188805063118  1.0000
  B   B584      1.0  0.8073227506624564  0.2769805965702347  0.06760275013601529  1.0000
  B   B585      1.0  0.871809100189066  0.3177562023199462  0.029025238100828146  1.0000
  B   B586      1.0  0.6822429062913621  0.0384769110975464  0.11235873400628393  1.0000
  B   B587      1.0  0.9844243406866586  0.29486069002922294  0.11235763419083189  1.0000
  B   B588      1.0  0.9615228669097086  0.18224037767644755  0.19569288143379493  1.0000
  B   B589      1.0  0.9615250515392274  0.15109359674318937  0.029025868435175337  1.0000
  B   B590      1.0  0.7051413363187179  0.1822443661962801  0.029025923097859292  1.0000
  B   B591      1.0  0.848909562765421  0.12818974631632435  0.1123591807306217  1.0000
  B   B592      1.0  0.8177591361001365  0.20513934072267187  0.1123580799830067  1.0000
  B   B593      1.0  0.7769853305285997  0.14065449199335242  0.15093878332499477  1.0000
  B   B594      1.0  0.6926764721229441  0.11032153517016273  0.06760697277988867  1.0000
  B   B595      1.0  0.8073200182484023  0.05635092207733839  0.23426903165454835  1.0000
  B   B596      1.0  0.7230180469687812  0.0260103822547753  0.317603084516981  1.0000
  B   B597      1.0  0.8896842297381837  0.14065601568268402  0.31760352939014364  1.0000
  B   B598      1.0  0.9436529431848953  0.026011700304675516  0.15093962810311706  1.0000
  B   B599      1.0  0.8593434060698838  0.05634498366722527  0.06760683543811108  1.0000
  B   B600      1.0  0.9739871858400759  0.11031556026521284  0.23427008542774552  1.0000
  B   B601      1.0  0.7051394336063829  0.15109035483006178  0.19569054038552644  1.0000
  B   B602      1.0  0.8489084851776193  0.20514218298301626  0.2790258929464386  1.0000
  B   B603      1.0  0.8177590066780717  0.12819159687286294  0.2790260711827108  1.0000
  B   B604      1.0  0.7948587040034617  0.015572592219273767  0.029025885799167303  1.0000
  B   B605      1.0  0.7948568408456127  0.31776004519086515  0.19569012867415342  1.0000
  B   B606      1.0  0.8718072734555287  0.015575873713664425  0.1956911454581349  1.0000
  B   B607      1.0  0.6822434861672076  0.29485745064247915  0.27902435069241865  1.0000
  B   B608      1.0  0.9844273430185568  0.03847447720821817  0.27902489171660927  1.0000
  O   O1009     1.0  0.9088710226700559  0.2913510265691717  0.008587091529862373  1.0000
  O   O1010     1.0  0.7086495844196716  0.075538302548417  0.09192148343550327  1.0000
  O   O1011     1.0  0.9580154086092731  0.257801410950601  0.09191940456813627  1.0000
  O   O1012     1.0  0.9244622647661009  0.2086491195326743  0.1752564311761783  1.0000
  O   O1013     1.0  0.7577978522821934  0.2913508455099498  0.17525190173565505  1.0000
  O   O1014     1.0  0.7422032658049263  0.20864956235822443  0.008588254753158886  1.0000
  O   O1015     1.0  0.875315689111862  0.0911280018683467  0.09192200859160571  1.0000
  O   O1016     1.0  0.7913514852649421  0.24219944045408492  0.09192021377738327  1.0000
  O   O1017     1.0  0.807866947212688  0.10824106573125758  0.13499181554503378  1.0000
  O   O1018     1.0  0.7250896245946553  0.14120257955139343  0.0516590948458917  1.0000
  O   O1019     1.0  0.9415753702765447  0.19213823332825306  0.05165439927517849  1.0000
  O   O1020     1.0  0.8588039048590738  0.22508975859715508  0.1349864458792195  1.0000
  O   O1021     1.0  0.6921359248329054  0.2749100409377513  0.1349856033957321  1.0000
  O   O1022     1.0  0.8078663088731558  0.22509099738314134  0.3016580017346772  1.0000
  O   O1023     1.0  0.8917571883084752  0.025465217006919613  0.051657990266043556  1.0000
  O   O1024     1.0  0.9415734871172369  0.14119539833521358  0.21832158320145656  1.0000
  O   O1025     1.0  0.9477241147960612  0.021733356245520186  0.3093571210250741  1.0000
  O   O1026     1.0  0.8115974680388215  0.2810565411537577  0.22602265450448236  1.0000
  O   O1027     1.0  0.68839824666035  0.2189531406457831  0.0593525780241131  1.0000
  O   O1028     1.0  0.8856172784691143  0.14493327940276682  0.1426865182144719  1.0000
  O   O1029     1.0  0.7189497918079766  0.021733284527452004  0.14268597776014308  1.0000
  O   O1030     1.0  0.9477214486630753  0.3116011431627552  0.14269013639509529  1.0000
  O   O1031     1.0  0.9782655553779048  0.2189443286409569  0.22602407328066818  1.0000
  O   O1032     1.0  0.8550664701566452  0.2810480594538628  0.05935256403140514  1.0000
  O   O1033     1.0  0.6666641289484919  0.16666689110104918  0.17144564058726106  1.0000
  O   O1034     1.0  0.666665060265498  3.424945097437026e-06  0.08811226395573277  1.0000
  O   O1035     1.0  0.6666674608937758  0.1666667512966071  0.004779910442259714  1.0000
  O   O1036     1.0  0.8333328826189172  0.16666328369744757  0.08811261478467101  1.0000
  O   O1037     1.0  0.7422001213947872  0.12468329583409879  0.17525241774312855  1.0000
  O   O1038     1.0  0.8753128075596757  0.24220497210378844  0.2585882131513692  1.0000
  O   O1039     1.0  0.7913503773629189  0.09113106628617614  0.25858858540284757  1.0000
  O   O1040     1.0  0.7577985035260025  0.04198091291021935  0.008588358983564895  1.0000
  O   O1041     1.0  0.924465058922719  0.12468517081522539  0.008588202499175007  1.0000
  O   O1042     1.0  0.9088685179369194  0.04198283062710462  0.17525393520888238  1.0000
  O   O1043     1.0  0.7086498186510144  0.2577959433554118  0.25858667159336085  1.0000
  O   O1044     1.0  0.9580176202035328  0.07553359953626475  0.2585874500121708  1.0000
  O   O1045     1.0  0.9745335333721756  0.2749088041132906  0.3016556047364897  1.0000
  O   O1046     1.0  0.8917559424216563  0.30786596374408237  0.2183225845545087  1.0000
  O   O1047     1.0  0.7749066662089699  0.025472555272133626  0.2183176371437841  1.0000
  O   O1048     1.0  0.6921396385471693  0.05842412401267708  0.301652517116801  1.0000
  O   O1049     1.0  0.8588046135292795  0.10824245111979891  0.30165397501279734  1.0000
  O   O1050     1.0  0.9745336734083623  0.05842535809897934  0.134991804663583  1.0000
  O   O1051     1.0  0.7250894967672104  0.1921331911905021  0.21832155896496316  1.0000
  O   O1052     1.0  0.7749093304550253  0.307860669490172  0.05165390110119334  1.0000
  O   O1053     1.0  0.7810544914993789  0.18839837067881693  0.14268922633778758  1.0000
  O   O1054     1.0  0.9782658214424359  0.1143893635117971  0.05935754700744762  1.0000
  O   O1055     1.0  0.85506402940023  0.05228240326068292  0.2260197279070569  1.0000
  O   O1056     1.0  0.7189499197986841  0.3115997457681073  0.30935332962839174  1.0000
  O   O1057     1.0  0.8856166804295393  0.18839991993636326  0.30935338897129716  1.0000
  O   O1058     1.0  0.7810546584327488  0.1449334069162545  0.30935717733462903  1.0000
  O   O1059     1.0  0.8115993680496909  0.052276203431308524  0.059357991950468494  1.0000
  O   O1060     1.0  0.6883974645394033  0.11438399418269127  0.22601952959522953  1.0000
  O   O1061     1.0  0.8333344654220713  0.9999996974087344  0.004779603682633246  1.0000
  O   O1062     1.0  0.8333322767144087  0.16666741585214287  0.25478003944426186  1.0000
  O   O1063     1.0  0.8333333394928831  0.9999992985970371  0.17144465749633844  1.0000
  O   O1064     1.0  0.6666674569429901  0.9999988389400678  0.25477853678698087  1.0000
  Li  Li305     1.0  0.9393397406883551  0.22267505118986802  0.6100383370226812  1.0000
  Li  Li306     1.0  0.9439935397256188  0.2726757946396533  0.5267060704096094  1.0000
  Li  Li307     1.0  0.8893387243762892  0.22732367107412238  0.360036825759502  1.0000
  Li  Li308     1.0  0.8939899467611182  0.27733043677844077  0.443370840153406  1.0000
  Li  Li309     1.0  0.8939903726560763  0.0560044112154763  0.6100348669691174  1.0000
  Li  Li310     1.0  0.9393430037174338  0.11066130460121253  0.4433728638837747  1.0000
  Li  Li311     1.0  0.9439927245864245  0.06065817393516394  0.36003938946109604  1.0000
  Li  Li312     1.0  0.8893356533291384  0.10601058798971398  0.5267026751853354  1.0000
  Li  Li313     1.0  0.7726770393254196  0.056004101738292456  0.44337487695376615  1.0000
  Li  Li314     1.0  0.7773243759504035  0.10600763941005502  0.36003953869510524  1.0000
  Li  Li315     1.0  0.7226657565131567  0.06065591819475505  0.5267021231801207  1.0000
  Li  Li316     1.0  0.7273243518269216  0.11066268582789329  0.6100344598080426  1.0000
  Li  Li317     1.0  0.7273240628793406  0.22267259747914608  0.4433678521338  1.0000
  Li  Li318     1.0  0.7726774528746239  0.27732608889261473  0.6100394876064053  1.0000
  Li  Li319     1.0  0.7773247802400961  0.2273243020870257  0.5267030416284154  1.0000
  Li  Li320     1.0  0.7226714692234742  0.27267758119403085  0.3600357405607211  1.0000
  B   B609      1.0  0.9436544612649508  0.3073226464589546  0.6509387106736029  1.0000
  B   B610      1.0  0.8593414185979131  0.2769873162152556  0.5676052994858662  1.0000
  B   B611      1.0  0.9739878271395204  0.22301967880615778  0.40093620653141215  1.0000
  B   B612      1.0  0.8896835254282609  0.1926771970115396  0.48427002418691784  1.0000
  B   B613      1.0  0.723016211302672  0.3073226353054664  0.4842685273315155  1.0000
  B   B614      1.0  0.7769858824982265  0.19267748197311352  0.6509394532442586  1.0000
  B   B615      1.0  0.6926765874787818  0.22301284303114755  0.5676052213839645  1.0000
  B   B616      1.0  0.8073227506624564  0.2769805965702347  0.4009360834693486  1.0000
  B   B617      1.0  0.871809100189066  0.3177562023199462  0.3623585714341615  1.0000
  B   B618      1.0  0.682242906291362  0.03847691109754639  0.4456920673396173  1.0000
  B   B619      1.0  0.9844243406866585  0.294860690029223  0.4456909675241652  1.0000
  B   B620      1.0  0.9615228669097083  0.18224037767644755  0.5290262147671282  1.0000
  B   B621      1.0  0.9615250515392273  0.15109359674318934  0.3623592017685087  1.0000
  B   B622      1.0  0.7051413363187179  0.18224436619628007  0.3623592564311926  1.0000
  B   B623      1.0  0.848909562765421  0.12818974631632435  0.4456925140639551  1.0000
  B   B624      1.0  0.8177591361001364  0.20513934072267184  0.44569141331634005  1.0000
  B   B625      1.0  0.7769853305285997  0.14065449199335245  0.48427211665832814  1.0000
  B   B626      1.0  0.692676472122944  0.11032153517016274  0.400940306113222  1.0000
  B   B627      1.0  0.8073200182484023  0.05635092207733839  0.5676023649878816  1.0000
  B   B628      1.0  0.7230180469687811  0.0260103822547753  0.6509364178503143  1.0000
  B   B629      1.0  0.8896842297381838  0.14065601568268404  0.650936862723477  1.0000
  B   B630      1.0  0.9436529431848953  0.026011700304675513  0.4842729614364503  1.0000
  B   B631      1.0  0.8593434060698836  0.05634498366722526  0.40094016877144445  1.0000
  B   B632      1.0  0.9739871858400759  0.11031556026521286  0.5676034187610788  1.0000
  B   B633      1.0  0.7051394336063829  0.15109035483006178  0.52902387371886  1.0000
  B   B634      1.0  0.8489084851776194  0.20514218298301626  0.612359226279772  1.0000
  B   B635      1.0  0.8177590066780714  0.12819159687286294  0.6123594045160442  1.0000
  B   B636      1.0  0.7948587040034616  0.015572592219273767  0.36235921913250063  1.0000
  B   B637      1.0  0.7948568408456127  0.31776004519086515  0.5290234620074867  1.0000
  B   B638      1.0  0.8718072734555286  0.015575873713664425  0.5290244787914683  1.0000
  B   B639      1.0  0.6822434861672075  0.29485745064247915  0.6123576840257521  1.0000
  B   B640      1.0  0.9844273430185566  0.038474477208218165  0.6123582250499425  1.0000
  O   O1065     1.0  0.9088710226700558  0.2913510265691717  0.34192042486319574  1.0000
  O   O1066     1.0  0.7086495844196716  0.075538302548417  0.42525481676883664  1.0000
  O   O1067     1.0  0.9580154086092729  0.257801410950601  0.42525273790146956  1.0000
  O   O1068     1.0  0.9244622647661008  0.2086491195326743  0.5085897645095117  1.0000
  O   O1069     1.0  0.7577978522821934  0.2913508455099498  0.5085852350689885  1.0000
  O   O1070     1.0  0.7422032658049262  0.20864956235822443  0.34192158808649226  1.0000
  O   O1071     1.0  0.875315689111862  0.09112800186834671  0.4252553419249391  1.0000
  O   O1072     1.0  0.791351485264942  0.24219944045408492  0.42525354711071656  1.0000
  O   O1073     1.0  0.807866947212688  0.1082410657312576  0.4683251488783671  1.0000
  O   O1074     1.0  0.7250896245946553  0.1412025795513934  0.384992428179225  1.0000
  O   O1075     1.0  0.9415753702765447  0.19213823332825303  0.3849877326085118  1.0000
  O   O1076     1.0  0.8588039048590738  0.22508975859715502  0.46831977921255286  1.0000
  O   O1077     1.0  0.6921359248329053  0.2749100409377513  0.4683189367290655  1.0000
  O   O1078     1.0  0.8078663088731558  0.22509099738314134  0.6349913350680106  1.0000
  O   O1079     1.0  0.8917571883084752  0.025465217006919613  0.38499132359937693  1.0000
  O   O1080     1.0  0.9415734871172368  0.14119539833521358  0.5516549165347898  1.0000
  O   O1081     1.0  0.9477241147960611  0.02173335624552019  0.6426904543584074  1.0000
  O   O1082     1.0  0.8115974680388214  0.2810565411537577  0.5593559878378158  1.0000
  O   O1083     1.0  0.6883982466603498  0.21895314064578308  0.39268591135744646  1.0000
  O   O1084     1.0  0.8856172784691143  0.1449332794027668  0.47601985154780513  1.0000
  O   O1085     1.0  0.7189497918079764  0.021733284527452  0.4760193110934765  1.0000
  O   O1086     1.0  0.9477214486630752  0.3116011431627552  0.4760234697284287  1.0000
  O   O1087     1.0  0.9782655553779046  0.21894432864095684  0.5593574066140015  1.0000
  O   O1088     1.0  0.8550664701566452  0.2810480594538628  0.3926858973647385  1.0000
  O   O1089     1.0  0.6666641289484917  0.16666689110104918  0.5047789739205945  1.0000
  O   O1090     1.0  0.6666650602654979  3.424945097437026e-06  0.4214455972890661  1.0000
  O   O1091     1.0  0.6666674608937758  0.1666667512966071  0.3381132437755931  1.0000
  O   O1092     1.0  0.8333328826189172  0.16666328369744757  0.4214459481180044  1.0000
  O   O1093     1.0  0.7422001213947872  0.12468329583409879  0.5085857510764619  1.0000
  O   O1094     1.0  0.8753128075596756  0.2422049721037884  0.5919215464847025  1.0000
  O   O1095     1.0  0.7913503773629189  0.09113106628617616  0.5919219187361809  1.0000
  O   O1096     1.0  0.7577985035260024  0.04198091291021935  0.3419216923168983  1.0000
  O   O1097     1.0  0.9244650589227188  0.12468517081522541  0.34192153583250834  1.0000
  O   O1098     1.0  0.9088685179369191  0.04198283062710462  0.5085872685422157  1.0000
  O   O1099     1.0  0.7086498186510143  0.2577959433554117  0.5919200049266942  1.0000
  O   O1100     1.0  0.9580176202035328  0.07553359953626478  0.5919207833455041  1.0000
  O   O1101     1.0  0.9745335333721756  0.27490880411329055  0.6349889380698232  1.0000
  O   O1102     1.0  0.8917559424216563  0.30786596374408237  0.5516559178878421  1.0000
  O   O1103     1.0  0.7749066662089699  0.025472555272133632  0.5516509704771175  1.0000
  O   O1104     1.0  0.6921396385471693  0.05842412401267708  0.6349858504501343  1.0000
  O   O1105     1.0  0.8588046135292794  0.10824245111979891  0.6349873083461306  1.0000
  O   O1106     1.0  0.9745336734083621  0.05842535809897934  0.46832513799691633  1.0000
  O   O1107     1.0  0.7250894967672104  0.1921331911905021  0.5516548922982966  1.0000
  O   O1108     1.0  0.7749093304550253  0.30786066949017205  0.3849872344345267  1.0000
  O   O1109     1.0  0.7810544914993789  0.1883983706788169  0.4760225596711209  1.0000
  O   O1110     1.0  0.9782658214424359  0.1143893635117971  0.3926908803407809  1.0000
  O   O1111     1.0  0.85506402940023  0.05228240326068292  0.5593530612403902  1.0000
  O   O1112     1.0  0.7189499197986841  0.3115997457681073  0.6426866629617249  1.0000
  O   O1113     1.0  0.8856166804295391  0.18839991993636326  0.6426867223046305  1.0000
  O   O1114     1.0  0.7810546584327488  0.14493340691625448  0.6426905106679625  1.0000
  O   O1115     1.0  0.8115993680496907  0.052276203431308524  0.39269132528380185  1.0000
  O   O1116     1.0  0.6883974645394032  0.11438399418269127  0.5593528629285628  1.0000
  O   O1117     1.0  0.8333344654220711  0.9999996974087344  0.3381129370159666  1.0000
  O   O1118     1.0  0.8333322767144087  0.16666741585214284  0.5881133727775952  1.0000
  O   O1119     1.0  0.8333333394928831  0.9999992985970371  0.5047779908296718  1.0000
  O   O1120     1.0  0.6666674569429901  0.9999988389400678  0.5881118701203143  1.0000
  Li  Li321     1.0  0.9393397406883551  0.22267505118986802  0.9433716703560145  1.0000
  Li  Li322     1.0  0.943993539725619  0.2726757946396533  0.8600394037429426  1.0000
  Li  Li323     1.0  0.8893387243762892  0.22732367107412238  0.6933701590928353  1.0000
  Li  Li324     1.0  0.8939899467611183  0.27733043677844077  0.7767041734867393  1.0000
  Li  Li325     1.0  0.8939903726560765  0.05600441121547631  0.9433682003024506  1.0000
  Li  Li326     1.0  0.9393430037174341  0.11066130460121251  0.7767061972171081  1.0000
  Li  Li327     1.0  0.9439927245864245  0.06065817393516395  0.6933727227944293  1.0000
  Li  Li328     1.0  0.8893356533291386  0.10601058798971398  0.8600360085186688  1.0000
  Li  Li329     1.0  0.7726770393254198  0.05600410173829246  0.7767082102870995  1.0000
  Li  Li330     1.0  0.7773243759504036  0.10600763941005503  0.6933728720284386  1.0000
  Li  Li331     1.0  0.7226657565131568  0.06065591819475505  0.860035456513454  1.0000
  Li  Li332     1.0  0.7273243518269216  0.11066268582789328  0.943367793141376  1.0000
  Li  Li333     1.0  0.7273240628793406  0.22267259747914608  0.7767011854671333  1.0000
  Li  Li334     1.0  0.772677452874624  0.2773260888926148  0.9433728209397384  1.0000
  Li  Li335     1.0  0.7773247802400961  0.22732430208702573  0.8600363749617486  1.0000
  Li  Li336     1.0  0.7226714692234744  0.27267758119403085  0.6933690738940543  1.0000
  B   B641      1.0  0.9436544612649508  0.3073226464589545  0.984272044006936  1.0000
  B   B642      1.0  0.8593414185979131  0.2769873162152556  0.9009386328191994  1.0000
  B   B643      1.0  0.9739878271395204  0.22301967880615778  0.7342695398647454  1.0000
  B   B644      1.0  0.8896835254282609  0.19267719701153962  0.8176033575202512  1.0000
  B   B645      1.0  0.7230162113026722  0.3073226353054664  0.8176018606648487  1.0000
  B   B646      1.0  0.7769858824982265  0.19267748197311352  0.984272786577592  1.0000
  B   B647      1.0  0.6926765874787818  0.22301284303114757  0.9009385547172978  1.0000
  B   B648      1.0  0.8073227506624564  0.2769805965702347  0.7342694168026819  1.0000
  B   B649      1.0  0.871809100189066  0.3177562023199462  0.6956919047674948  1.0000
  B   B650      1.0  0.6822429062913621  0.03847691109754639  0.7790254006729506  1.0000
  B   B651      1.0  0.9844243406866586  0.29486069002922294  0.7790243008574985  1.0000
  B   B652      1.0  0.9615228669097085  0.18224037767644755  0.8623595481004616  1.0000
  B   B653      1.0  0.9615250515392274  0.15109359674318937  0.6956925351018419  1.0000
  B   B654      1.0  0.705141336318718  0.1822443661962801  0.695692589764526  1.0000
  B   B655      1.0  0.848909562765421  0.12818974631632435  0.7790258473972884  1.0000
  B   B656      1.0  0.8177591361001365  0.20513934072267187  0.7790247466496735  1.0000
  B   B657      1.0  0.7769853305285997  0.14065449199335245  0.8176054499916614  1.0000
  B   B658      1.0  0.6926764721229441  0.11032153517016274  0.7342736394465552  1.0000
  B   B659      1.0  0.8073200182484025  0.0563509220773384  0.900935698321215  1.0000
  B   B660      1.0  0.7230180469687812  0.0260103822547753  0.9842697511836476  1.0000
  B   B661      1.0  0.8896842297381838  0.14065601568268404  0.9842701960568102  1.0000
  B   B662      1.0  0.9436529431848955  0.026011700304675513  0.8176062947697836  1.0000
  B   B663      1.0  0.8593434060698838  0.05634498366722527  0.7342735021047777  1.0000
  B   B664      1.0  0.9739871858400759  0.11031556026521284  0.9009367520944122  1.0000
  B   B665      1.0  0.7051394336063829  0.1510903548300618  0.8623572070521931  1.0000
  B   B666      1.0  0.8489084851776194  0.20514218298301626  0.9456925596131053  1.0000
  B   B667      1.0  0.8177590066780716  0.12819159687286294  0.9456927378493774  1.0000
  B   B668      1.0  0.7948587040034617  0.015572592219273767  0.695692552465834  1.0000
  B   B669      1.0  0.7948568408456127  0.31776004519086504  0.86235679534082  1.0000
  B   B670      1.0  0.8718072734555287  0.015575873713664425  0.8623578121248016  1.0000
  B   B671      1.0  0.6822434861672076  0.29485745064247915  0.9456910173590855  1.0000
  B   B672      1.0  0.9844273430185567  0.03847447720821817  0.9456915583832758  1.0000
  O   O1121     1.0  0.9088710226700558  0.29135102656917167  0.6752537581965291  1.0000
  O   O1122     1.0  0.7086495844196716  0.075538302548417  0.75858815010217  1.0000
  O   O1123     1.0  0.958015408609273  0.257801410950601  0.7585860712348028  1.0000
  O   O1124     1.0  0.9244622647661009  0.2086491195326743  0.841923097842845  1.0000
  O   O1125     1.0  0.7577978522821934  0.2913508455099497  0.8419185684023217  1.0000
  O   O1126     1.0  0.7422032658049263  0.20864956235822443  0.6752549214198255  1.0000
  O   O1127     1.0  0.8753156891118621  0.09112800186834671  0.7585886752582724  1.0000
  O   O1128     1.0  0.7913514852649421  0.24219944045408492  0.7585868804440499  1.0000
  O   O1129     1.0  0.807866947212688  0.1082410657312576  0.8016584822117004  1.0000
  O   O1130     1.0  0.7250896245946553  0.14120257955139343  0.7183257615125583  1.0000
  O   O1131     1.0  0.9415753702765447  0.19213823332825303  0.7183210659418452  1.0000
  O   O1132     1.0  0.8588039048590738  0.22508975859715502  0.8016531125458861  1.0000
  O   O1133     1.0  0.6921359248329054  0.27491004093775134  0.8016522700623988  1.0000
  O   O1134     1.0  0.8078663088731558  0.22509099738314134  0.9683246684013439  1.0000
  O   O1135     1.0  0.8917571883084752  0.025465217006919613  0.7183246569327103  1.0000
  O   O1136     1.0  0.9415734871172369  0.14119539833521358  0.8849882498681232  1.0000
  O   O1137     1.0  0.9477241147960612  0.021733356245520183  0.9760237876917409  1.0000
  O   O1138     1.0  0.8115974680388215  0.2810565411537578  0.892689321171149  1.0000
  O   O1139     1.0  0.68839824666035  0.2189531406457831  0.7260192446907797  1.0000
  O   O1140     1.0  0.8856172784691144  0.1449332794027668  0.8093531848811385  1.0000
  O   O1141     1.0  0.7189497918079766  0.021733284527452  0.8093526444268098  1.0000
  O   O1142     1.0  0.9477214486630752  0.31160114316275517  0.8093568030617619  1.0000
  O   O1143     1.0  0.9782655553779048  0.2189443286409569  0.8926907399473348  1.0000
  O   O1144     1.0  0.8550664701566452  0.2810480594538628  0.7260192306980718  1.0000
  O   O1145     1.0  0.6666641289484919  0.1666668911010492  0.8381123072539276  1.0000
  O   O1146     1.0  0.666665060265498  3.424945097437027e-06  0.7547789306223995  1.0000
  O   O1147     1.0  0.6666674608937758  0.16666675129660713  0.6714465771089263  1.0000
  O   O1148     1.0  0.8333328826189172  0.16666328369744757  0.7547792814513377  1.0000
  O   O1149     1.0  0.7422001213947872  0.12468329583409879  0.8419190844097951  1.0000
  O   O1150     1.0  0.8753128075596756  0.2422049721037884  0.9252548798180358  1.0000
  O   O1151     1.0  0.791350377362919  0.09113106628617614  0.9252552520695142  1.0000
  O   O1152     1.0  0.7577985035260025  0.04198091291021936  0.6752550256502315  1.0000
  O   O1153     1.0  0.924465058922719  0.1246851708152254  0.6752548691658417  1.0000
  O   O1154     1.0  0.9088685179369193  0.041982830627104624  0.8419206018755491  1.0000
  O   O1155     1.0  0.7086498186510143  0.2577959433554118  0.9252533382600274  1.0000
  O   O1156     1.0  0.9580176202035328  0.07553359953626476  0.9252541166788374  1.0000
  O   O1157     1.0  0.9745335333721756  0.27490880411329055  0.9683222714031564  1.0000
  O   O1158     1.0  0.8917559424216563  0.30786596374408237  0.8849892512211753  1.0000
  O   O1159     1.0  0.7749066662089699  0.025472555272133626  0.8849843038104508  1.0000
  O   O1160     1.0  0.6921396385471693  0.05842412401267709  0.9683191837834676  1.0000
  O   O1161     1.0  0.8588046135292795  0.10824245111979891  0.9683206416794639  1.0000
  O   O1162     1.0  0.9745336734083623  0.05842535809897934  0.8016584713302496  1.0000
  O   O1163     1.0  0.7250894967672104  0.1921331911905021  0.8849882256316298  1.0000
  O   O1164     1.0  0.7749093304550253  0.307860669490172  0.71832056776786  1.0000
  O   O1165     1.0  0.7810544914993789  0.1883983706788169  0.8093558930044541  1.0000
  O   O1166     1.0  0.9782658214424359  0.1143893635117971  0.7260242136741142  1.0000
  O   O1167     1.0  0.8550640294002302  0.052282403260682925  0.8926863945737235  1.0000
  O   O1168     1.0  0.7189499197986841  0.31159974576810723  0.9760199962950582  1.0000
  O   O1169     1.0  0.8856166804295393  0.18839991993636326  0.9760200556379638  1.0000
  O   O1170     1.0  0.7810546584327489  0.14493340691625448  0.9760238440012957  1.0000
  O   O1171     1.0  0.8115993680496908  0.05227620343130853  0.7260246586171352  1.0000
  O   O1172     1.0  0.6883974645394033  0.11438399418269128  0.8926861962618962  1.0000
  O   O1173     1.0  0.8333344654220712  0.9999996974087344  0.6714462703492998  1.0000
  O   O1174     1.0  0.8333322767144087  0.16666741585214284  0.9214467061109285  1.0000
  O   O1175     1.0  0.8333333394928832  0.9999992985970371  0.8381113241630049  1.0000
  O   O1176     1.0  0.6666674569429903  0.9999988389400678  0.9214452034536474  1.0000
  Li  Li337     1.0  0.939339740688355  0.5560083845232013  0.2767050036893479  1.0000
  Li  Li338     1.0  0.9439935397256187  0.6060091279729866  0.19337273707627603  1.0000
  Li  Li339     1.0  0.8893387243762891  0.5606570044074557  0.02670349242616866  1.0000
  Li  Li340     1.0  0.8939899467611182  0.6106637701117742  0.1100375068200727  1.0000
  Li  Li341     1.0  0.8939903726560762  0.3893377445488097  0.276701533635784  1.0000
  Li  Li342     1.0  0.9393430037174337  0.4439946379345459  0.11003953055044138  1.0000
  Li  Li343     1.0  0.9439927245864244  0.3939915072684973  0.026706056127762695  1.0000
  Li  Li344     1.0  0.8893356533291382  0.43934392132304734  0.19336934185200208  1.0000
  Li  Li345     1.0  0.77267703932542  0.38933743507162577  0.11004154362043282  1.0000
  Li  Li346     1.0  0.7773243759504035  0.43934097274338835  0.026706205361771932  1.0000
  Li  Li347     1.0  0.7226657565131567  0.39398925152808845  0.1933687898467874  1.0000
  Li  Li348     1.0  0.7273243518269216  0.4439960191612266  0.27670112647470924  1.0000
  Li  Li349     1.0  0.7273240628793406  0.5560059308124794  0.11003451880046668  1.0000
  Li  Li350     1.0  0.772677452874624  0.610659422225948  0.2767061542730718  1.0000
  Li  Li351     1.0  0.7773247802400961  0.5606576354203591  0.193369708295082  1.0000
  Li  Li352     1.0  0.7226714692234744  0.6060109145273642  0.026702407227387735  1.0000
  B   B673      1.0  0.9436544612649507  0.6406559797922879  0.31760537734026956  1.0000
  B   B674      1.0  0.8593414185979131  0.610320649548589  0.23427196615253285  1.0000
  B   B675      1.0  0.9739878271395203  0.5563530121394912  0.0676028731980788  1.0000
  B   B676      1.0  0.8896835254282608  0.5260105303448729  0.15093669085358447  1.0000
  B   B677      1.0  0.7230162113026722  0.6406559686387998  0.1509351939981822  1.0000
  B   B678      1.0  0.7769858824982264  0.5260108153064469  0.3176061199109253  1.0000
  B   B679      1.0  0.6926765874787817  0.5563461763644809  0.23427188805063118  1.0000
  B   B680      1.0  0.8073227506624563  0.610313929903568  0.06760275013601529  1.0000
  B   B681      1.0  0.8718091001890659  0.6510895356532796  0.029025238100828146  1.0000
  B   B682      1.0  0.682242906291362  0.37181024443087973  0.11235873400628393  1.0000
  B   B683      1.0  0.9844243406866586  0.6281940233625564  0.11235763419083189  1.0000
  B   B684      1.0  0.9615228669097085  0.5155737110097809  0.19569288143379493  1.0000
  B   B685      1.0  0.9615250515392274  0.4844269300765227  0.029025868435175337  1.0000
  B   B686      1.0  0.7051413363187179  0.5155776995296134  0.029025923097859292  1.0000
  B   B687      1.0  0.848909562765421  0.4615230796496577  0.1123591807306217  1.0000
  B   B688      1.0  0.8177591361001365  0.5384726740560052  0.1123580799830067  1.0000
  B   B689      1.0  0.7769853305285997  0.4739878253266858  0.15093878332499477  1.0000
  B   B690      1.0  0.692676472122944  0.44365486850349606  0.06760697277988867  1.0000
  B   B691      1.0  0.8073200182484023  0.38968425541067175  0.23426903165454835  1.0000
  B   B692      1.0  0.7230180469687812  0.3593437155881087  0.31760308451698094  1.0000
  B   B693      1.0  0.8896842297381836  0.47398934901601736  0.31760352939014364  1.0000
  B   B694      1.0  0.9436529431848952  0.3593450336380089  0.15093962810311706  1.0000
  B   B695      1.0  0.8593434060698836  0.3896783170005586  0.06760683543811108  1.0000
  B   B696      1.0  0.9739871858400758  0.4436488935985462  0.23427008542774552  1.0000
  B   B697      1.0  0.7051394336063828  0.48442368816339515  0.19569054038552644  1.0000
  B   B698      1.0  0.8489084851776192  0.5384755163163496  0.2790258929464386  1.0000
  B   B699      1.0  0.8177590066780717  0.4615249302061963  0.2790260711827108  1.0000
  B   B700      1.0  0.7948587040034616  0.3489059255526071  0.029025885799167303  1.0000
  B   B701      1.0  0.7948568408456126  0.6510933785241985  0.19569012867415342  1.0000
  B   B702      1.0  0.8718072734555287  0.34890920704699785  0.1956911454581349  1.0000
  B   B703      1.0  0.6822434861672076  0.6281907839758126  0.2790243506924186  1.0000
  B   B704      1.0  0.9844273430185567  0.3718078105415515  0.2790248917166092  1.0000
  O   O1177     1.0  0.9088710226700558  0.624684359902505  0.008587091529862373  1.0000
  O   O1178     1.0  0.7086495844196716  0.40887163588175035  0.09192148343550326  1.0000
  O   O1179     1.0  0.9580154086092731  0.5911347442839345  0.09191940456813627  1.0000
  O   O1180     1.0  0.9244622647661008  0.5419824528660077  0.1752564311761783  1.0000
  O   O1181     1.0  0.7577978522821933  0.624684178843283  0.17525190173565505  1.0000
  O   O1182     1.0  0.7422032658049262  0.5419828956915578  0.008588254753158886  1.0000
  O   O1183     1.0  0.8753156891118619  0.42446133520168006  0.09192200859160571  1.0000
  O   O1184     1.0  0.791351485264942  0.5755327737874183  0.09192021377738327  1.0000
  O   O1185     1.0  0.807866947212688  0.44157439906459095  0.13499181554503378  1.0000
  O   O1186     1.0  0.7250896245946552  0.4745359128847268  0.051659094845891707  1.0000
  O   O1187     1.0  0.9415753702765446  0.5254715666615863  0.051654399275178495  1.0000
  O   O1188     1.0  0.8588039048590735  0.5584230919304883  0.1349864458792195  1.0000
  O   O1189     1.0  0.6921359248329054  0.6082433742710847  0.1349856033957321  1.0000
  O   O1190     1.0  0.8078663088731557  0.5584243307164747  0.3016580017346772  1.0000
  O   O1191     1.0  0.8917571883084752  0.358798550340253  0.05165799026604356  1.0000
  O   O1192     1.0  0.9415734871172368  0.4745287316685469  0.21832158320145653  1.0000
  O   O1193     1.0  0.9477241147960612  0.3550666895788535  0.30935712102507407  1.0000
  O   O1194     1.0  0.8115974680388215  0.614389874487091  0.22602265450448236  1.0000
  O   O1195     1.0  0.6883982466603498  0.5522864739791165  0.0593525780241131  1.0000
  O   O1196     1.0  0.8856172784691143  0.47826661273610016  0.1426865182144719  1.0000
  O   O1197     1.0  0.7189497918079766  0.35506661786078536  0.14268597776014308  1.0000
  O   O1198     1.0  0.9477214486630753  0.6449344764960885  0.14269013639509529  1.0000
  O   O1199     1.0  0.9782655553779046  0.5522776619742903  0.22602407328066818  1.0000
  O   O1200     1.0  0.8550664701566452  0.6143813927871963  0.05935256403140514  1.0000
  O   O1201     1.0  0.6666641289484919  0.5000002244343825  0.17144564058726106  1.0000
  O   O1202     1.0  0.666665060265498  0.33333675827843084  0.08811226395573277  1.0000
  O   O1203     1.0  0.6666674608937758  0.5000000846299405  0.004779910442259715  1.0000
  O   O1204     1.0  0.8333328826189171  0.49999661703078097  0.088112614784671  1.0000
  O   O1205     1.0  0.7422001213947872  0.4580166291674321  0.17525241774312855  1.0000
  O   O1206     1.0  0.8753128075596757  0.5755383054371217  0.2585882131513692  1.0000
  O   O1207     1.0  0.7913503773629188  0.42446439961950955  0.2585885854028475  1.0000
  O   O1208     1.0  0.7577985035260025  0.37531424624355275  0.008588358983564895  1.0000
  O   O1209     1.0  0.924465058922719  0.45801850414855877  0.008588202499175007  1.0000
  O   O1210     1.0  0.9088685179369194  0.375316163960438  0.17525393520888238  1.0000
  O   O1211     1.0  0.7086498186510144  0.5911292766887452  0.25858667159336085  1.0000
  O   O1212     1.0  0.9580176202035326  0.40886693286959813  0.2585874500121708  1.0000
  O   O1213     1.0  0.9745335333721756  0.6082421374466239  0.3016556047364897  1.0000
  O   O1214     1.0  0.8917559424216562  0.6411992970774157  0.2183225845545087  1.0000
  O   O1215     1.0  0.7749066662089698  0.35880588860546697  0.2183176371437841  1.0000
  O   O1216     1.0  0.6921396385471692  0.3917574573460104  0.30165251711680097  1.0000
  O   O1217     1.0  0.8588046135292795  0.4415757844531323  0.3016539750127973  1.0000
  O   O1218     1.0  0.9745336734083621  0.39175869143231273  0.134991804663583  1.0000
  O   O1219     1.0  0.7250894967672102  0.5254665245238355  0.21832155896496316  1.0000
  O   O1220     1.0  0.7749093304550253  0.6411940028235055  0.05165390110119334  1.0000
  O   O1221     1.0  0.7810544914993787  0.5217317040121503  0.14268922633778758  1.0000
  O   O1222     1.0  0.9782658214424359  0.44772269684513044  0.05935754700744762  1.0000
  O   O1223     1.0  0.85506402940023  0.38561573659401627  0.2260197279070569  1.0000
  O   O1224     1.0  0.7189499197986841  0.6449330791014407  0.3093533296283917  1.0000
  O   O1225     1.0  0.8856166804295391  0.5217332532696967  0.3093533889712971  1.0000
  O   O1226     1.0  0.7810546584327488  0.4782667402495878  0.30935717733462903  1.0000
  O   O1227     1.0  0.8115993680496908  0.3856095367646419  0.059357991950468494  1.0000
  O   O1228     1.0  0.6883974645394032  0.44771732751602467  0.22601952959522953  1.0000
  O   O1229     1.0  0.8333344654220713  0.3333330307420678  0.004779603682633247  1.0000
  O   O1230     1.0  0.8333322767144087  0.5000007491854762  0.2547800394442618  1.0000
  O   O1231     1.0  0.8333333394928831  0.33333263193037044  0.17144465749633842  1.0000
  O   O1232     1.0  0.6666674569429901  0.3333321722734012  0.25477853678698087  1.0000
  Li  Li353     1.0  0.939339740688355  0.5560083845232014  0.6100383370226813  1.0000
  Li  Li354     1.0  0.9439935397256187  0.6060091279729866  0.5267060704096094  1.0000
  Li  Li355     1.0  0.8893387243762891  0.5606570044074558  0.360036825759502  1.0000
  Li  Li356     1.0  0.8939899467611181  0.6106637701117741  0.443370840153406  1.0000
  Li  Li357     1.0  0.8939903726560762  0.3893377445488097  0.6100348669691174  1.0000
  Li  Li358     1.0  0.9393430037174338  0.4439946379345459  0.44337286388377467  1.0000
  Li  Li359     1.0  0.9439927245864244  0.3939915072684973  0.36003938946109604  1.0000
  Li  Li360     1.0  0.8893356533291382  0.43934392132304734  0.5267026751853353  1.0000
  Li  Li361     1.0  0.7726770393254196  0.38933743507162577  0.44337487695376615  1.0000
  Li  Li362     1.0  0.7773243759504034  0.4393409727433884  0.36003953869510524  1.0000
  Li  Li363     1.0  0.7226657565131566  0.39398925152808845  0.5267021231801207  1.0000
  Li  Li364     1.0  0.7273243518269216  0.4439960191612266  0.6100344598080426  1.0000
  Li  Li365     1.0  0.7273240628793406  0.5560059308124794  0.4433678521338  1.0000
  Li  Li366     1.0  0.7726774528746239  0.6106594222259483  0.6100394876064053  1.0000
  Li  Li367     1.0  0.777324780240096  0.5606576354203591  0.5267030416284154  1.0000
  Li  Li368     1.0  0.7226714692234742  0.6060109145273642  0.360035740560721  1.0000
  B   B705      1.0  0.9436544612649507  0.6406559797922878  0.6509387106736029  1.0000
  B   B706      1.0  0.8593414185979131  0.6103206495485889  0.5676052994858661  1.0000
  B   B707      1.0  0.9739878271395204  0.5563530121394912  0.40093620653141215  1.0000
  B   B708      1.0  0.8896835254282608  0.526010530344873  0.48427002418691784  1.0000
  B   B709      1.0  0.723016211302672  0.6406559686387997  0.48426852733151554  1.0000
  B   B710      1.0  0.7769858824982265  0.5260108153064469  0.6509394532442586  1.0000
  B   B711      1.0  0.6926765874787817  0.5563461763644809  0.5676052213839644  1.0000
  B   B712      1.0  0.8073227506624563  0.610313929903568  0.40093608346934856  1.0000
  B   B713      1.0  0.8718091001890659  0.6510895356532796  0.3623585714341615  1.0000
  B   B714      1.0  0.6822429062913618  0.37181024443087984  0.4456920673396173  1.0000
  B   B715      1.0  0.9844243406866585  0.6281940233625564  0.44569096752416515  1.0000
  B   B716      1.0  0.9615228669097082  0.5155737110097809  0.5290262147671283  1.0000
  B   B717      1.0  0.9615250515392273  0.48442693007652277  0.36235920176850867  1.0000
  B   B718      1.0  0.7051413363187179  0.5155776995296134  0.3623592564311926  1.0000
  B   B719      1.0  0.848909562765421  0.4615230796496577  0.44569251406395505  1.0000
  B   B720      1.0  0.8177591361001364  0.5384726740560052  0.44569141331634005  1.0000
  B   B721      1.0  0.7769853305285997  0.4739878253266858  0.48427211665832814  1.0000
  B   B722      1.0  0.6926764721229438  0.44365486850349606  0.40094030611322196  1.0000
  B   B723      1.0  0.8073200182484023  0.38968425541067175  0.5676023649878816  1.0000
  B   B724      1.0  0.7230180469687811  0.3593437155881087  0.6509364178503143  1.0000
  B   B725      1.0  0.8896842297381837  0.47398934901601736  0.6509368627234771  1.0000
  B   B726      1.0  0.9436529431848952  0.3593450336380089  0.48427296143645043  1.0000
  B   B727      1.0  0.8593434060698835  0.3896783170005586  0.4009401687714444  1.0000
  B   B728      1.0  0.9739871858400758  0.4436488935985462  0.5676034187610788  1.0000
  B   B729      1.0  0.7051394336063828  0.4844236881633952  0.5290238737188597  1.0000
  B   B730      1.0  0.8489084851776193  0.5384755163163496  0.6123592262797719  1.0000
  B   B731      1.0  0.8177590066780714  0.4615249302061963  0.6123594045160441  1.0000
  B   B732      1.0  0.7948587040034615  0.3489059255526071  0.36235921913250063  1.0000
  B   B733      1.0  0.7948568408456126  0.6510933785241986  0.5290234620074867  1.0000
  B   B734      1.0  0.8718072734555286  0.34890920704699785  0.5290244787914682  1.0000
  B   B735      1.0  0.6822434861672075  0.6281907839758126  0.612357684025752  1.0000
  B   B736      1.0  0.9844273430185565  0.3718078105415516  0.6123582250499426  1.0000
  O   O1233     1.0  0.9088710226700557  0.624684359902505  0.3419204248631957  1.0000
  O   O1234     1.0  0.7086495844196716  0.4088716358817504  0.42525481676883664  1.0000
  O   O1235     1.0  0.9580154086092729  0.5911347442839344  0.42525273790146956  1.0000
  O   O1236     1.0  0.9244622647661007  0.5419824528660077  0.5085897645095117  1.0000
  O   O1237     1.0  0.7577978522821933  0.624684178843283  0.5085852350689883  1.0000
  O   O1238     1.0  0.7422032658049261  0.5419828956915578  0.3419215880864922  1.0000
  O   O1239     1.0  0.8753156891118619  0.42446133520168006  0.425255341924939  1.0000
  O   O1240     1.0  0.7913514852649419  0.5755327737874183  0.42525354711071656  1.0000
  O   O1241     1.0  0.807866947212688  0.44157439906459095  0.4683251488783671  1.0000
  O   O1242     1.0  0.7250896245946552  0.4745359128847268  0.384992428179225  1.0000
  O   O1243     1.0  0.9415753702765446  0.5254715666615863  0.38498773260851177  1.0000
  O   O1244     1.0  0.8588039048590735  0.5584230919304883  0.46831977921255286  1.0000
  O   O1245     1.0  0.6921359248329053  0.6082433742710848  0.46831893672906544  1.0000
  O   O1246     1.0  0.8078663088731557  0.5584243307164747  0.6349913350680105  1.0000
  O   O1247     1.0  0.8917571883084752  0.358798550340253  0.3849913235993769  1.0000
  O   O1248     1.0  0.9415734871172367  0.474528731668547  0.5516549165347898  1.0000
  O   O1249     1.0  0.9477241147960611  0.35506668957885357  0.6426904543584073  1.0000
  O   O1250     1.0  0.8115974680388214  0.614389874487091  0.5593559878378157  1.0000
  O   O1251     1.0  0.6883982466603497  0.5522864739791165  0.39268591135744646  1.0000
  O   O1252     1.0  0.8856172784691143  0.47826661273610016  0.47601985154780524  1.0000
  O   O1253     1.0  0.7189497918079764  0.3550666178607854  0.4760193110934764  1.0000
  O   O1254     1.0  0.9477214486630752  0.6449344764960885  0.47602346972842857  1.0000
  O   O1255     1.0  0.9782655553779045  0.5522776619742903  0.5593574066140015  1.0000
  O   O1256     1.0  0.8550664701566452  0.6143813927871963  0.39268589736473847  1.0000
  O   O1257     1.0  0.6666641289484917  0.5000002244343826  0.5047789739205943  1.0000
  O   O1258     1.0  0.6666650602654979  0.33333675827843084  0.42144559728906605  1.0000
  O   O1259     1.0  0.6666674608937758  0.5000000846299405  0.33811324377559304  1.0000
  O   O1260     1.0  0.8333328826189171  0.49999661703078097  0.42144594811800434  1.0000
  O   O1261     1.0  0.7422001213947872  0.4580166291674322  0.5085857510764618  1.0000
  O   O1262     1.0  0.8753128075596756  0.5755383054371218  0.5919215464847026  1.0000
  O   O1263     1.0  0.7913503773629188  0.42446439961950955  0.5919219187361808  1.0000
  O   O1264     1.0  0.7577985035260024  0.37531424624355275  0.34192169231689823  1.0000
  O   O1265     1.0  0.9244650589227188  0.45801850414855877  0.34192153583250834  1.0000
  O   O1266     1.0  0.9088685179369191  0.375316163960438  0.5085872685422157  1.0000
  O   O1267     1.0  0.7086498186510143  0.591129276688745  0.5919200049266942  1.0000
  O   O1268     1.0  0.9580176202035326  0.40886693286959813  0.5919207833455041  1.0000
  O   O1269     1.0  0.9745335333721756  0.608242137446624  0.634988938069823  1.0000
  O   O1270     1.0  0.8917559424216562  0.6411992970774157  0.5516559178878421  1.0000
  O   O1271     1.0  0.7749066662089698  0.35880588860546697  0.5516509704771174  1.0000
  O   O1272     1.0  0.6921396385471692  0.3917574573460104  0.6349858504501344  1.0000
  O   O1273     1.0  0.8588046135292794  0.4415757844531323  0.6349873083461307  1.0000
  O   O1274     1.0  0.974533673408362  0.39175869143231273  0.46832513799691633  1.0000
  O   O1275     1.0  0.7250894967672102  0.5254665245238356  0.5516548922982965  1.0000
  O   O1276     1.0  0.7749093304550253  0.6411940028235056  0.38498723443452665  1.0000
  O   O1277     1.0  0.7810544914993787  0.5217317040121503  0.4760225596711209  1.0000
  O   O1278     1.0  0.9782658214424359  0.4477226968451305  0.3926908803407809  1.0000
  O   O1279     1.0  0.85506402940023  0.38561573659401627  0.5593530612403902  1.0000
  O   O1280     1.0  0.7189499197986841  0.6449330791014407  0.642686662961725  1.0000
  O   O1281     1.0  0.885616680429539  0.5217332532696967  0.6426867223046304  1.0000
  O   O1282     1.0  0.7810546584327488  0.4782667402495879  0.6426905106679623  1.0000
  O   O1283     1.0  0.8115993680496906  0.3856095367646419  0.39269132528380185  1.0000
  O   O1284     1.0  0.6883974645394031  0.44771732751602467  0.5593528629285629  1.0000
  O   O1285     1.0  0.8333344654220711  0.3333330307420678  0.33811293701596656  1.0000
  O   O1286     1.0  0.8333322767144087  0.5000007491854762  0.5881133727775951  1.0000
  O   O1287     1.0  0.8333333394928831  0.33333263193037044  0.5047779908296718  1.0000
  O   O1288     1.0  0.6666674569429901  0.3333321722734012  0.5881118701203142  1.0000
  Li  Li369     1.0  0.939339740688355  0.5560083845232014  0.9433716703560145  1.0000
  Li  Li370     1.0  0.9439935397256188  0.6060091279729866  0.8600394037429427  1.0000
  Li  Li371     1.0  0.8893387243762891  0.5606570044074557  0.6933701590928354  1.0000
  Li  Li372     1.0  0.8939899467611182  0.6106637701117742  0.7767041734867394  1.0000
  Li  Li373     1.0  0.8939903726560763  0.3893377445488097  0.9433682003024506  1.0000
  Li  Li374     1.0  0.9393430037174341  0.4439946379345459  0.7767061972171082  1.0000
  Li  Li375     1.0  0.9439927245864244  0.3939915072684973  0.6933727227944293  1.0000
  Li  Li376     1.0  0.8893356533291384  0.4393439213230474  0.8600360085186689  1.0000
  Li  Li377     1.0  0.7726770393254198  0.38933743507162577  0.7767082102870996  1.0000
  Li  Li378     1.0  0.7773243759504035  0.4393409727433884  0.6933728720284386  1.0000
  Li  Li379     1.0  0.7226657565131567  0.39398925152808845  0.8600354565134541  1.0000
  Li  Li380     1.0  0.7273243518269216  0.4439960191612266  0.9433677931413759  1.0000
  Li  Li381     1.0  0.7273240628793406  0.5560059308124795  0.7767011854671334  1.0000
  Li  Li382     1.0  0.772677452874624  0.610659422225948  0.9433728209397387  1.0000
  Li  Li383     1.0  0.777324780240096  0.5606576354203591  0.8600363749617487  1.0000
  Li  Li384     1.0  0.7226714692234744  0.6060109145273641  0.6933690738940544  1.0000
  B   B737      1.0  0.9436544612649507  0.6406559797922878  0.9842720440069365  1.0000
  B   B738      1.0  0.8593414185979131  0.610320649548589  0.9009386328191995  1.0000
  B   B739      1.0  0.9739878271395204  0.5563530121394912  0.7342695398647455  1.0000
  B   B740      1.0  0.8896835254282608  0.526010530344873  0.8176033575202513  1.0000
  B   B741      1.0  0.7230162113026722  0.6406559686387998  0.8176018606648489  1.0000
  B   B742      1.0  0.7769858824982265  0.5260108153064469  0.984272786577592  1.0000
  B   B743      1.0  0.6926765874787817  0.5563461763644809  0.9009385547172979  1.0000
  B   B744      1.0  0.8073227506624563  0.6103139299035681  0.734269416802682  1.0000
  B   B745      1.0  0.8718091001890659  0.6510895356532798  0.6956919047674948  1.0000
  B   B746      1.0  0.682242906291362  0.37181024443087984  0.7790254006729506  1.0000
  B   B747      1.0  0.9844243406866586  0.6281940233625563  0.7790243008574986  1.0000
  B   B748      1.0  0.9615228669097083  0.5155737110097809  0.8623595481004616  1.0000
  B   B749      1.0  0.9615250515392274  0.4844269300765228  0.695692535101842  1.0000
  B   B750      1.0  0.705141336318718  0.5155776995296134  0.6956925897645261  1.0000
  B   B751      1.0  0.848909562765421  0.4615230796496577  0.7790258473972884  1.0000
  B   B752      1.0  0.8177591361001365  0.5384726740560052  0.7790247466496735  1.0000
  B   B753      1.0  0.7769853305285997  0.4739878253266858  0.8176054499916615  1.0000
  B   B754      1.0  0.692676472122944  0.44365486850349606  0.7342736394465553  1.0000
  B   B755      1.0  0.8073200182484025  0.3896842554106718  0.9009356983212151  1.0000
  B   B756      1.0  0.7230180469687812  0.3593437155881087  0.9842697511836476  1.0000
  B   B757      1.0  0.8896842297381837  0.47398934901601747  0.9842701960568104  1.0000
  B   B758      1.0  0.9436529431848953  0.3593450336380089  0.8176062947697836  1.0000
  B   B759      1.0  0.8593434060698836  0.3896783170005586  0.7342735021047778  1.0000
  B   B760      1.0  0.9739871858400758  0.4436488935985462  0.9009367520944122  1.0000
  B   B761      1.0  0.7051394336063828  0.48442368816339515  0.8623572070521932  1.0000
  B   B762      1.0  0.8489084851776193  0.5384755163163496  0.9456925596131053  1.0000
  B   B763      1.0  0.8177590066780716  0.46152493020619634  0.9456927378493776  1.0000
  B   B764      1.0  0.7948587040034616  0.34890592555260713  0.695692552465834  1.0000
  B   B765      1.0  0.7948568408456126  0.6510933785241986  0.8623567953408201  1.0000
  B   B766      1.0  0.8718072734555287  0.34890920704699785  0.8623578121248017  1.0000
  B   B767      1.0  0.6822434861672076  0.6281907839758124  0.9456910173590855  1.0000
  B   B768      1.0  0.9844273430185566  0.3718078105415516  0.945691558383276  1.0000
  O   O1289     1.0  0.9088710226700557  0.6246843599025049  0.6752537581965291  1.0000
  O   O1290     1.0  0.7086495844196716  0.40887163588175035  0.75858815010217  1.0000
  O   O1291     1.0  0.958015408609273  0.5911347442839345  0.7585860712348029  1.0000
  O   O1292     1.0  0.9244622647661008  0.5419824528660077  0.841923097842845  1.0000
  O   O1293     1.0  0.7577978522821933  0.6246841788432833  0.8419185684023218  1.0000
  O   O1294     1.0  0.7422032658049262  0.5419828956915578  0.6752549214198256  1.0000
  O   O1295     1.0  0.875315689111862  0.4244613352016801  0.7585886752582724  1.0000
  O   O1296     1.0  0.791351485264942  0.5755327737874183  0.7585868804440499  1.0000
  O   O1297     1.0  0.807866947212688  0.441574399064591  0.8016584822117006  1.0000
  O   O1298     1.0  0.7250896245946552  0.47453591288472685  0.7183257615125584  1.0000
  O   O1299     1.0  0.9415753702765446  0.5254715666615863  0.7183210659418452  1.0000
  O   O1300     1.0  0.8588039048590735  0.5584230919304884  0.8016531125458861  1.0000
  O   O1301     1.0  0.6921359248329054  0.6082433742710848  0.8016522700623989  1.0000
  O   O1302     1.0  0.8078663088731557  0.5584243307164747  0.9683246684013439  1.0000
  O   O1303     1.0  0.8917571883084752  0.35879855034025304  0.7183246569327103  1.0000
  O   O1304     1.0  0.9415734871172368  0.4745287316685469  0.8849882498681233  1.0000
  O   O1305     1.0  0.9477241147960612  0.35506668957885357  0.9760237876917409  1.0000
  O   O1306     1.0  0.8115974680388215  0.6143898744870913  0.8926893211711491  1.0000
  O   O1307     1.0  0.6883982466603498  0.5522864739791165  0.7260192446907798  1.0000
  O   O1308     1.0  0.8856172784691144  0.47826661273610016  0.8093531848811386  1.0000
  O   O1309     1.0  0.7189497918079766  0.3550666178607854  0.8093526444268099  1.0000
  O   O1310     1.0  0.9477214486630752  0.6449344764960886  0.809356803061762  1.0000
  O   O1311     1.0  0.9782655553779046  0.5522776619742903  0.8926907399473348  1.0000
  O   O1312     1.0  0.8550664701566452  0.6143813927871962  0.726019230698072  1.0000
  O   O1313     1.0  0.6666641289484919  0.5000002244343825  0.8381123072539277  1.0000
  O   O1314     1.0  0.666665060265498  0.33333675827843084  0.7547789306223995  1.0000
  O   O1315     1.0  0.6666674608937758  0.5000000846299405  0.6714465771089264  1.0000
  O   O1316     1.0  0.8333328826189171  0.49999661703078097  0.7547792814513378  1.0000
  O   O1317     1.0  0.7422001213947872  0.4580166291674322  0.8419190844097952  1.0000
  O   O1318     1.0  0.8753128075596756  0.5755383054371217  0.9252548798180359  1.0000
  O   O1319     1.0  0.7913503773629189  0.42446439961950955  0.9252552520695143  1.0000
  O   O1320     1.0  0.7577985035260025  0.37531424624355275  0.6752550256502317  1.0000
  O   O1321     1.0  0.924465058922719  0.45801850414855877  0.6752548691658417  1.0000
  O   O1322     1.0  0.9088685179369193  0.375316163960438  0.8419206018755491  1.0000
  O   O1323     1.0  0.7086498186510143  0.5911292766887452  0.9252533382600275  1.0000
  O   O1324     1.0  0.9580176202035326  0.40886693286959813  0.9252541166788375  1.0000
  O   O1325     1.0  0.9745335333721756  0.6082421374466239  0.9683222714031564  1.0000
  O   O1326     1.0  0.8917559424216562  0.6411992970774157  0.8849892512211753  1.0000
  O   O1327     1.0  0.7749066662089698  0.358805888605467  0.8849843038104509  1.0000
  O   O1328     1.0  0.6921396385471692  0.39175745734601053  0.9683191837834677  1.0000
  O   O1329     1.0  0.8588046135292795  0.4415757844531323  0.9683206416794641  1.0000
  O   O1330     1.0  0.9745336734083621  0.39175869143231273  0.8016584713302497  1.0000
  O   O1331     1.0  0.7250894967672102  0.5254665245238355  0.8849882256316298  1.0000
  O   O1332     1.0  0.7749093304550253  0.6411940028235055  0.7183205677678601  1.0000
  O   O1333     1.0  0.7810544914993787  0.5217317040121503  0.8093558930044542  1.0000
  O   O1334     1.0  0.9782658214424359  0.44772269684513044  0.7260242136741143  1.0000
  O   O1335     1.0  0.8550640294002302  0.38561573659401627  0.8926863945737236  1.0000
  O   O1336     1.0  0.7189499197986841  0.6449330791014407  0.9760199962950584  1.0000
  O   O1337     1.0  0.8856166804295391  0.5217332532696967  0.9760200556379639  1.0000
  O   O1338     1.0  0.7810546584327489  0.4782667402495879  0.9760238440012957  1.0000
  O   O1339     1.0  0.8115993680496907  0.38560953676464194  0.7260246586171353  1.0000
  O   O1340     1.0  0.6883974645394032  0.44771732751602467  0.8926861962618962  1.0000
  O   O1341     1.0  0.8333344654220712  0.3333330307420678  0.6714462703492999  1.0000
  O   O1342     1.0  0.8333322767144087  0.5000007491854763  0.9214467061109286  1.0000
  O   O1343     1.0  0.8333333394928832  0.33333263193037044  0.838111324163005  1.0000
  O   O1344     1.0  0.6666674569429903  0.3333321722734012  0.9214452034536476  1.0000
  Li  Li385     1.0  0.9393397406883551  0.8893417178565347  0.2767050036893479  1.0000
  Li  Li386     1.0  0.9439935397256188  0.93934246130632  0.193372737076276  1.0000
  Li  Li387     1.0  0.8893387243762892  0.8939903377407891  0.02670349242616866  1.0000
  Li  Li388     1.0  0.8939899467611183  0.9439971034451075  0.1100375068200727  1.0000
  Li  Li389     1.0  0.8939903726560763  0.722671077882143  0.276701533635784  1.0000
  Li  Li390     1.0  0.9393430037174338  0.7773279712678792  0.11003953055044137  1.0000
  Li  Li391     1.0  0.9439927245864245  0.7273248406018307  0.02670605612776269  1.0000
  Li  Li392     1.0  0.8893356533291384  0.7726772546563807  0.19336934185200208  1.0000
  Li  Li393     1.0  0.7726770393254198  0.7226707684049591  0.11004154362043281  1.0000
  Li  Li394     1.0  0.7773243759504036  0.7726743060767217  0.026706205361771932  1.0000
  Li  Li395     1.0  0.7226657565131568  0.7273225848614217  0.1933687898467874  1.0000
  Li  Li396     1.0  0.7273243518269216  0.7773293524945599  0.27670112647470924  1.0000
  Li  Li397     1.0  0.7273240628793406  0.8893392641458129  0.11003451880046668  1.0000
  Li  Li398     1.0  0.7726774528746239  0.9439927555592815  0.2767061542730718  1.0000
  Li  Li399     1.0  0.7773247802400961  0.8939909687536923  0.193369708295082  1.0000
  Li  Li400     1.0  0.7226714692234744  0.9393442478606977  0.026702407227387735  1.0000
  B   B769      1.0  0.9436544612649508  0.9739893131256213  0.31760537734026956  1.0000
  B   B770      1.0  0.8593414185979131  0.9436539828819223  0.23427196615253285  1.0000
  B   B771      1.0  0.9739878271395204  0.8896863454728245  0.0676028731980788  1.0000
  B   B772      1.0  0.8896835254282609  0.8593438636782063  0.15093669085358447  1.0000
  B   B773      1.0  0.7230162113026722  0.9739893019721331  0.1509351939981822  1.0000
  B   B774      1.0  0.7769858824982265  0.8593441486397803  0.3176061199109253  1.0000
  B   B775      1.0  0.6926765874787818  0.8896795096978143  0.23427188805063118  1.0000
  B   B776      1.0  0.8073227506624564  0.9436472632369013  0.06760275013601529  1.0000
  B   B777      1.0  0.871809100189066  0.9844228689866129  0.029025238100828146  1.0000
  B   B778      1.0  0.6822429062913621  0.7051435777642131  0.11235873400628392  1.0000
  B   B779      1.0  0.9844243406866586  0.9615273566958898  0.11235763419083189  1.0000
  B   B780      1.0  0.9615228669097085  0.8489070443431141  0.1956928814337949  1.0000
  B   B781      1.0  0.9615250515392273  0.8177602634098561  0.029025868435175337  1.0000
  B   B782      1.0  0.7051413363187179  0.8489110328629468  0.029025923097859292  1.0000
  B   B783      1.0  0.848909562765421  0.794856412982991  0.1123591807306217  1.0000
  B   B784      1.0  0.8177591361001365  0.8718060073893386  0.11235807998300669  1.0000
  B   B785      1.0  0.7769853305285997  0.8073211586600191  0.15093878332499477  1.0000
  B   B786      1.0  0.6926764721229441  0.7769882018368295  0.06760697277988867  1.0000
  B   B787      1.0  0.8073200182484023  0.7230175887440052  0.23426903165454832  1.0000
  B   B788      1.0  0.7230180469687812  0.6926770489214421  0.317603084516981  1.0000
  B   B789      1.0  0.8896842297381838  0.8073226823493508  0.31760352939014364  1.0000
  B   B790      1.0  0.9436529431848953  0.6926783669713421  0.15093962810311706  1.0000
  B   B791      1.0  0.8593434060698838  0.723011650333892  0.06760683543811108  1.0000
  B   B792      1.0  0.9739871858400759  0.7769822269318796  0.23427008542774552  1.0000
  B   B793      1.0  0.7051394336063829  0.8177570214967285  0.19569054038552644  1.0000
  B   B794      1.0  0.8489084851776194  0.871808849649683  0.2790258929464386  1.0000
  B   B795      1.0  0.8177590066780716  0.7948582635395297  0.2790260711827108  1.0000
  B   B796      1.0  0.7948587040034617  0.6822392588859404  0.029025885799167303  1.0000
  B   B797      1.0  0.7948568408456127  0.9844267118575318  0.19569012867415342  1.0000
  B   B798      1.0  0.8718072734555287  0.6822425403803312  0.1956911454581349  1.0000
  B   B799      1.0  0.6822434861672076  0.961524117309146  0.27902435069241865  1.0000
  B   B800      1.0  0.9844273430185567  0.7051411438748848  0.27902489171660927  1.0000
  O   O1345     1.0  0.9088710226700558  0.9580176932358385  0.008587091529862373  1.0000
  O   O1346     1.0  0.7086495844196716  0.7422049692150836  0.09192148343550326  1.0000
  O   O1347     1.0  0.958015408609273  0.9244680776172678  0.09191940456813627  1.0000
  O   O1348     1.0  0.9244622647661009  0.875315786199341  0.1752564311761783  1.0000
  O   O1349     1.0  0.7577978522821934  0.9580175121766163  0.17525190173565505  1.0000
  O   O1350     1.0  0.7422032658049263  0.875316229024891  0.008588254753158886  1.0000
  O   O1351     1.0  0.875315689111862  0.7577946685350135  0.0919220085916057  1.0000
  O   O1352     1.0  0.7913514852649421  0.9088661071207517  0.09192021377738326  1.0000
  O   O1353     1.0  0.807866947212688  0.7749077323979243  0.13499181554503376  1.0000
  O   O1354     1.0  0.7250896245946553  0.8078692462180601  0.051659094845891707  1.0000
  O   O1355     1.0  0.9415753702765447  0.8588048999949197  0.051654399275178495  1.0000
  O   O1356     1.0  0.8588039048590738  0.8917564252638217  0.1349864458792195  1.0000
  O   O1357     1.0  0.6921359248329054  0.9415767076044181  0.1349856033957321  1.0000
  O   O1358     1.0  0.8078663088731558  0.891757664049808  0.3016580017346772  1.0000
  O   O1359     1.0  0.8917571883084752  0.6921318836735864  0.05165799026604356  1.0000
  O   O1360     1.0  0.9415734871172369  0.8078620650018803  0.21832158320145653  1.0000
  O   O1361     1.0  0.9477241147960612  0.6884000229121868  0.3093571210250741  1.0000
  O   O1362     1.0  0.8115974680388214  0.9477232078204244  0.22602265450448236  1.0000
  O   O1363     1.0  0.68839824666035  0.8856198073124497  0.0593525780241131  1.0000
  O   O1364     1.0  0.8856172784691143  0.8115999460694334  0.1426865182144719  1.0000
  O   O1365     1.0  0.7189497918079766  0.6883999511941188  0.14268597776014308  1.0000
  O   O1366     1.0  0.9477214486630752  0.9782678098294217  0.14269013639509529  1.0000
  O   O1367     1.0  0.9782655553779046  0.8856109953076235  0.22602407328066815  1.0000
  O   O1368     1.0  0.8550664701566452  0.9477147261205295  0.05935256403140514  1.0000
  O   O1369     1.0  0.6666641289484919  0.8333335577677159  0.17144564058726106  1.0000
  O   O1370     1.0  0.666665060265498  0.6666700916117642  0.08811226395573275  1.0000
  O   O1371     1.0  0.6666674608937758  0.8333334179632739  0.004779910442259715  1.0000
  O   O1372     1.0  0.8333328826189172  0.8333299503641143  0.088112614784671  1.0000
  O   O1373     1.0  0.7422001213947872  0.7913499625007656  0.17525241774312855  1.0000
  O   O1374     1.0  0.8753128075596756  0.9088716387704552  0.2585882131513692  1.0000
  O   O1375     1.0  0.791350377362919  0.7577977329528429  0.25858858540284757  1.0000
  O   O1376     1.0  0.7577985035260025  0.7086475795768861  0.008588358983564895  1.0000
  O   O1377     1.0  0.924465058922719  0.791351837481892  0.008588202499175007  1.0000
  O   O1378     1.0  0.9088685179369193  0.7086494972937714  0.17525393520888236  1.0000
  O   O1379     1.0  0.7086498186510143  0.9244626100220785  0.25858667159336085  1.0000
  O   O1380     1.0  0.9580176202035328  0.7422002662029316  0.2585874500121708  1.0000
  O   O1381     1.0  0.9745335333721756  0.9415754707799573  0.3016556047364897  1.0000
  O   O1382     1.0  0.8917559424216563  0.974532630410749  0.2183225845545087  1.0000
  O   O1383     1.0  0.7749066662089699  0.6921392219388004  0.21831763714378408  1.0000
  O   O1384     1.0  0.6921396385471693  0.7250907906793438  0.301652517116801  1.0000
  O   O1385     1.0  0.8588046135292795  0.7749091177864657  0.30165397501279734  1.0000
  O   O1386     1.0  0.9745336734083623  0.725092024765646  0.134991804663583  1.0000
  O   O1387     1.0  0.7250894967672104  0.8587998578571687  0.21832155896496314  1.0000
  O   O1388     1.0  0.7749093304550253  0.9745273361568387  0.05165390110119335  1.0000
  O   O1389     1.0  0.7810544914993789  0.8550650373454836  0.14268922633778758  1.0000
  O   O1390     1.0  0.9782658214424359  0.7810560301784637  0.05935754700744762  1.0000
  O   O1391     1.0  0.8550640294002302  0.7189490699273496  0.2260197279070569  1.0000
  O   O1392     1.0  0.7189499197986841  0.9782664124347741  0.3093533296283917  1.0000
  O   O1393     1.0  0.8856166804295393  0.85506658660303  0.30935338897129716  1.0000
  O   O1394     1.0  0.7810546584327488  0.8116000735829211  0.30935717733462903  1.0000
  O   O1395     1.0  0.8115993680496908  0.7189428700979752  0.059357991950468494  1.0000
  O   O1396     1.0  0.6883974645394033  0.7810506608493579  0.22601952959522953  1.0000
  O   O1397     1.0  0.8333344654220712  0.6666663640754011  0.004779603682633247  1.0000
  O   O1398     1.0  0.8333322767144087  0.8333340825188096  0.25478003944426186  1.0000
  O   O1399     1.0  0.8333333394928832  0.6666659652637038  0.17144465749633842  1.0000
  O   O1400     1.0  0.6666674569429903  0.6666655056067344  0.25477853678698087  1.0000
  Li  Li401     1.0  0.9393397406883551  0.8893417178565347  0.6100383370226813  1.0000
  Li  Li402     1.0  0.9439935397256188  0.9393424613063199  0.5267060704096094  1.0000
  Li  Li403     1.0  0.8893387243762892  0.893990337740789  0.360036825759502  1.0000
  Li  Li404     1.0  0.8939899467611182  0.9439971034451075  0.44337084015340605  1.0000
  Li  Li405     1.0  0.8939903726560763  0.7226710778821428  0.6100348669691174  1.0000
  Li  Li406     1.0  0.9393430037174337  0.7773279712678791  0.4433728638837747  1.0000
  Li  Li407     1.0  0.9439927245864245  0.7273248406018306  0.36003938946109604  1.0000
  Li  Li408     1.0  0.8893356533291384  0.7726772546563806  0.5267026751853354  1.0000
  Li  Li409     1.0  0.7726770393254198  0.722670768404959  0.44337487695376615  1.0000
  Li  Li410     1.0  0.7773243759504035  0.7726743060767216  0.36003953869510524  1.0000
  Li  Li411     1.0  0.7226657565131567  0.7273225848614217  0.5267021231801208  1.0000
  Li  Li412     1.0  0.7273243518269216  0.7773293524945599  0.6100344598080427  1.0000
  Li  Li413     1.0  0.7273240628793406  0.8893392641458128  0.4433678521338  1.0000
  Li  Li414     1.0  0.772677452874624  0.9439927555592814  0.6100394876064053  1.0000
  Li  Li415     1.0  0.7773247802400962  0.8939909687536923  0.5267030416284153  1.0000
  Li  Li416     1.0  0.7226714692234742  0.9393442478606976  0.3600357405607211  1.0000
  B   B801      1.0  0.9436544612649508  0.9739893131256213  0.6509387106736029  1.0000
  B   B802      1.0  0.8593414185979131  0.9436539828819223  0.5676052994858662  1.0000
  B   B803      1.0  0.9739878271395203  0.8896863454728244  0.40093620653141215  1.0000
  B   B804      1.0  0.8896835254282609  0.8593438636782063  0.48427002418691784  1.0000
  B   B805      1.0  0.723016211302672  0.9739893019721331  0.48426852733151554  1.0000
  B   B806      1.0  0.7769858824982264  0.8593441486397803  0.6509394532442586  1.0000
  B   B807      1.0  0.6926765874787818  0.8896795096978143  0.5676052213839645  1.0000
  B   B808      1.0  0.8073227506624564  0.9436472632369013  0.40093608346934867  1.0000
  B   B809      1.0  0.871809100189066  0.9844228689866129  0.3623585714341615  1.0000
  B   B810      1.0  0.682242906291362  0.7051435777642131  0.4456920673396173  1.0000
  B   B811      1.0  0.9844243406866585  0.9615273566958896  0.4456909675241652  1.0000
  B   B812      1.0  0.9615228669097085  0.8489070443431141  0.5290262147671282  1.0000
  B   B813      1.0  0.9615250515392274  0.817760263409856  0.3623592017685087  1.0000
  B   B814      1.0  0.7051413363187179  0.8489110328629467  0.3623592564311926  1.0000
  B   B815      1.0  0.848909562765421  0.794856412982991  0.4456925140639551  1.0000
  B   B816      1.0  0.8177591361001364  0.8718060073893384  0.44569141331634005  1.0000
  B   B817      1.0  0.7769853305285997  0.8073211586600191  0.4842721166583281  1.0000
  B   B818      1.0  0.692676472122944  0.7769882018368293  0.400940306113222  1.0000
  B   B819      1.0  0.8073200182484023  0.723017588744005  0.5676023649878817  1.0000
  B   B820      1.0  0.7230180469687811  0.6926770489214419  0.6509364178503143  1.0000
  B   B821      1.0  0.8896842297381837  0.8073226823493508  0.6509368627234771  1.0000
  B   B822      1.0  0.9436529431848953  0.6926783669713421  0.48427296143645043  1.0000
  B   B823      1.0  0.8593434060698836  0.723011650333892  0.40094016877144445  1.0000
  B   B824      1.0  0.9739871858400759  0.7769822269318796  0.5676034187610789  1.0000
  B   B825      1.0  0.7051394336063829  0.8177570214967284  0.5290238737188598  1.0000
  B   B826      1.0  0.8489084851776193  0.871808849649683  0.6123592262797719  1.0000
  B   B827      1.0  0.8177590066780716  0.7948582635395297  0.6123594045160442  1.0000
  B   B828      1.0  0.7948587040034616  0.6822392588859405  0.36235921913250063  1.0000
  B   B829      1.0  0.7948568408456127  0.9844267118575317  0.5290234620074867  1.0000
  B   B830      1.0  0.8718072734555286  0.682242540380331  0.5290244787914683  1.0000
  B   B831      1.0  0.6822434861672075  0.9615241173091459  0.612357684025752  1.0000
  B   B832      1.0  0.9844273430185567  0.7051411438748848  0.6123582250499426  1.0000
  O   O1401     1.0  0.9088710226700559  0.9580176932358384  0.34192042486319574  1.0000
  O   O1402     1.0  0.7086495844196716  0.7422049692150837  0.4252548167688366  1.0000
  O   O1403     1.0  0.958015408609273  0.9244680776172678  0.4252527379014696  1.0000
  O   O1404     1.0  0.9244622647661008  0.8753157861993409  0.5085897645095118  1.0000
  O   O1405     1.0  0.7577978522821934  0.9580175121766163  0.5085852350689883  1.0000
  O   O1406     1.0  0.7422032658049262  0.875316229024891  0.34192158808649226  1.0000
  O   O1407     1.0  0.875315689111862  0.7577946685350134  0.425255341924939  1.0000
  O   O1408     1.0  0.791351485264942  0.9088661071207517  0.4252535471107166  1.0000
  O   O1409     1.0  0.807866947212688  0.7749077323979242  0.46832514887836707  1.0000
  O   O1410     1.0  0.7250896245946553  0.8078692462180601  0.3849924281792251  1.0000
  O   O1411     1.0  0.9415753702765447  0.8588048999949198  0.3849877326085118  1.0000
  O   O1412     1.0  0.8588039048590738  0.8917564252638217  0.46831977921255286  1.0000
  O   O1413     1.0  0.6921359248329053  0.9415767076044179  0.46831893672906544  1.0000
  O   O1414     1.0  0.8078663088731558  0.891757664049808  0.6349913350680106  1.0000
  O   O1415     1.0  0.8917571883084752  0.6921318836735862  0.3849913235993769  1.0000
  O   O1416     1.0  0.9415734871172368  0.8078620650018801  0.5516549165347899  1.0000
  O   O1417     1.0  0.9477241147960611  0.6884000229121867  0.6426904543584074  1.0000
  O   O1418     1.0  0.8115974680388215  0.9477232078204244  0.5593559878378157  1.0000
  O   O1419     1.0  0.6883982466603498  0.8856198073124497  0.3926859113574464  1.0000
  O   O1420     1.0  0.8856172784691143  0.8115999460694334  0.47601985154780524  1.0000
  O   O1421     1.0  0.7189497918079767  0.6883999511941186  0.4760193110934764  1.0000
  O   O1422     1.0  0.9477214486630753  0.9782678098294217  0.47602346972842857  1.0000
  O   O1423     1.0  0.9782655553779048  0.8856109953076235  0.5593574066140015  1.0000
  O   O1424     1.0  0.8550664701566452  0.9477147261205295  0.39268589736473847  1.0000
  O   O1425     1.0  0.6666641289484917  0.8333335577677158  0.5047789739205945  1.0000
  O   O1426     1.0  0.6666650602654979  0.666670091611764  0.4214455972890661  1.0000
  O   O1427     1.0  0.6666674608937758  0.8333334179632738  0.33811324377559304  1.0000
  O   O1428     1.0  0.8333328826189172  0.8333299503641142  0.42144594811800434  1.0000
  O   O1429     1.0  0.7422001213947872  0.7913499625007656  0.5085857510764618  1.0000
  O   O1430     1.0  0.8753128075596757  0.9088716387704551  0.5919215464847025  1.0000
  O   O1431     1.0  0.7913503773629188  0.7577977329528428  0.5919219187361808  1.0000
  O   O1432     1.0  0.7577985035260024  0.708647579576886  0.34192169231689823  1.0000
  O   O1433     1.0  0.9244650589227188  0.791351837481892  0.34192153583250834  1.0000
  O   O1434     1.0  0.9088685179369193  0.7086494972937712  0.5085872685422157  1.0000
  O   O1435     1.0  0.7086498186510144  0.9244626100220785  0.5919200049266942  1.0000
  O   O1436     1.0  0.9580176202035328  0.7422002662029314  0.5919207833455041  1.0000
  O   O1437     1.0  0.9745335333721756  0.9415754707799572  0.6349889380698232  1.0000
  O   O1438     1.0  0.8917559424216563  0.974532630410749  0.5516559178878422  1.0000
  O   O1439     1.0  0.7749066662089699  0.6921392219388004  0.5516509704771174  1.0000
  O   O1440     1.0  0.6921396385471693  0.7250907906793438  0.6349858504501343  1.0000
  O   O1441     1.0  0.8588046135292794  0.7749091177864657  0.6349873083461306  1.0000
  O   O1442     1.0  0.9745336734083621  0.7250920247656459  0.46832513799691633  1.0000
  O   O1443     1.0  0.7250894967672104  0.8587998578571687  0.5516548922982966  1.0000
  O   O1444     1.0  0.7749093304550253  0.9745273361568387  0.38498723443452665  1.0000
  O   O1445     1.0  0.7810544914993789  0.8550650373454836  0.4760225596711209  1.0000
  O   O1446     1.0  0.9782658214424359  0.7810560301784638  0.392690880340781  1.0000
  O   O1447     1.0  0.8550640294002299  0.7189490699273496  0.5593530612403902  1.0000
  O   O1448     1.0  0.7189499197986841  0.978266412434774  0.642686662961725  1.0000
  O   O1449     1.0  0.8856166804295391  0.85506658660303  0.6426867223046305  1.0000
  O   O1450     1.0  0.7810546584327488  0.8116000735829211  0.6426905106679623  1.0000
  O   O1451     1.0  0.8115993680496908  0.7189428700979752  0.3926913252838018  1.0000
  O   O1452     1.0  0.6883974645394032  0.7810506608493579  0.5593528629285629  1.0000
  O   O1453     1.0  0.8333344654220712  0.6666663640754011  0.3381129370159666  1.0000
  O   O1454     1.0  0.8333322767144087  0.8333340825188095  0.5881133727775952  1.0000
  O   O1455     1.0  0.833333339492883  0.6666659652637038  0.5047779908296718  1.0000
  O   O1456     1.0  0.6666674569429903  0.6666655056067344  0.5881118701203142  1.0000
  Li  Li417     1.0  0.9393397406883551  0.8893417178565348  0.9433716703560148  1.0000
  Li  Li418     1.0  0.943993539725619  0.93934246130632  0.8600394037429426  1.0000
  Li  Li419     1.0  0.8893387243762892  0.8939903377407891  0.6933701590928354  1.0000
  Li  Li420     1.0  0.8939899467611183  0.9439971034451075  0.7767041734867394  1.0000
  Li  Li421     1.0  0.8939903726560765  0.7226710778821431  0.9433682003024508  1.0000
  Li  Li422     1.0  0.9393430037174338  0.7773279712678792  0.776706197217108  1.0000
  Li  Li423     1.0  0.9439927245864245  0.7273248406018307  0.6933727227944293  1.0000
  Li  Li424     1.0  0.8893356533291386  0.7726772546563807  0.8600360085186687  1.0000
  Li  Li425     1.0  0.77267703932542  0.7226707684049591  0.7767082102870996  1.0000
  Li  Li426     1.0  0.7773243759504036  0.7726743060767217  0.6933728720284386  1.0000
  Li  Li427     1.0  0.7226657565131568  0.7273225848614217  0.860035456513454  1.0000
  Li  Li428     1.0  0.7273243518269216  0.7773293524945601  0.943367793141376  1.0000
  Li  Li429     1.0  0.7273240628793406  0.8893392641458129  0.7767011854671334  1.0000
  Li  Li430     1.0  0.7726774528746241  0.9439927555592815  0.9433728209397385  1.0000
  Li  Li431     1.0  0.7773247802400962  0.8939909687536924  0.8600363749617487  1.0000
  Li  Li432     1.0  0.7226714692234744  0.9393442478606976  0.6933690738940544  1.0000
  B   B833      1.0  0.9436544612649508  0.9739893131256212  0.9842720440069362  1.0000
  B   B834      1.0  0.8593414185979131  0.9436539828819223  0.9009386328191995  1.0000
  B   B835      1.0  0.9739878271395203  0.8896863454728245  0.7342695398647455  1.0000
  B   B836      1.0  0.8896835254282609  0.8593438636782063  0.8176033575202512  1.0000
  B   B837      1.0  0.7230162113026722  0.9739893019721331  0.8176018606648489  1.0000
  B   B838      1.0  0.7769858824982264  0.8593441486397803  0.984272786577592  1.0000
  B   B839      1.0  0.6926765874787818  0.8896795096978143  0.9009385547172979  1.0000
  B   B840      1.0  0.8073227506624564  0.9436472632369014  0.734269416802682  1.0000
  B   B841      1.0  0.871809100189066  0.984422868986613  0.6956919047674948  1.0000
  B   B842      1.0  0.6822429062913621  0.7051435777642131  0.7790254006729506  1.0000
  B   B843      1.0  0.9844243406866586  0.9615273566958896  0.7790243008574985  1.0000
  B   B844      1.0  0.9615228669097086  0.8489070443431141  0.8623595481004617  1.0000
  B   B845      1.0  0.9615250515392275  0.8177602634098561  0.695692535101842  1.0000
  B   B846      1.0  0.705141336318718  0.8489110328629469  0.6956925897645261  1.0000
  B   B847      1.0  0.848909562765421  0.794856412982991  0.7790258473972884  1.0000
  B   B848      1.0  0.8177591361001365  0.8718060073893387  0.7790247466496734  1.0000
  B   B849      1.0  0.7769853305285997  0.8073211586600191  0.8176054499916615  1.0000
  B   B850      1.0  0.6926764721229441  0.7769882018368295  0.7342736394465554  1.0000
  B   B851      1.0  0.8073200182484025  0.7230175887440052  0.900935698321215  1.0000
  B   B852      1.0  0.7230180469687812  0.6926770489214421  0.9842697511836478  1.0000
  B   B853      1.0  0.8896842297381837  0.8073226823493508  0.9842701960568104  1.0000
  B   B854      1.0  0.9436529431848955  0.6926783669713421  0.8176062947697837  1.0000
  B   B855      1.0  0.8593434060698838  0.723011650333892  0.7342735021047778  1.0000
  B   B856      1.0  0.9739871858400759  0.7769822269318796  0.9009367520944122  1.0000
  B   B857      1.0  0.7051394336063829  0.8177570214967285  0.8623572070521931  1.0000
  B   B858      1.0  0.8489084851776193  0.871808849649683  0.9456925596131053  1.0000
  B   B859      1.0  0.8177590066780717  0.7948582635395297  0.9456927378493776  1.0000
  B   B860      1.0  0.7948587040034617  0.6822392588859405  0.695692552465834  1.0000
  B   B861      1.0  0.7948568408456127  0.9844267118575319  0.8623567953408201  1.0000
  B   B862      1.0  0.8718072734555287  0.6822425403803312  0.8623578121248016  1.0000
  B   B863      1.0  0.6822434861672076  0.9615241173091459  0.9456910173590852  1.0000
  B   B864      1.0  0.9844273430185568  0.7051411438748849  0.945691558383276  1.0000
  O   O1457     1.0  0.9088710226700559  0.9580176932358384  0.6752537581965291  1.0000
  O   O1458     1.0  0.7086495844196716  0.7422049692150837  0.75858815010217  1.0000
  O   O1459     1.0  0.9580154086092731  0.9244680776172678  0.7585860712348029  1.0000
  O   O1460     1.0  0.9244622647661009  0.875315786199341  0.841923097842845  1.0000
  O   O1461     1.0  0.7577978522821934  0.9580175121766166  0.8419185684023218  1.0000
  O   O1462     1.0  0.7422032658049263  0.8753162290248911  0.6752549214198256  1.0000
  O   O1463     1.0  0.8753156891118621  0.7577946685350134  0.7585886752582724  1.0000
  O   O1464     1.0  0.7913514852649421  0.9088661071207517  0.7585868804440499  1.0000
  O   O1465     1.0  0.807866947212688  0.7749077323979243  0.8016584822117006  1.0000
  O   O1466     1.0  0.7250896245946553  0.8078692462180602  0.7183257615125584  1.0000
  O   O1467     1.0  0.9415753702765447  0.8588048999949198  0.7183210659418452  1.0000
  O   O1468     1.0  0.8588039048590738  0.8917564252638217  0.8016531125458862  1.0000
  O   O1469     1.0  0.6921359248329054  0.9415767076044181  0.8016522700623988  1.0000
  O   O1470     1.0  0.8078663088731558  0.891757664049808  0.9683246684013439  1.0000
  O   O1471     1.0  0.8917571883084752  0.6921318836735864  0.7183246569327103  1.0000
  O   O1472     1.0  0.9415734871172369  0.8078620650018803  0.8849882498681232  1.0000
  O   O1473     1.0  0.9477241147960612  0.6884000229121869  0.9760237876917407  1.0000
  O   O1474     1.0  0.8115974680388216  0.9477232078204245  0.8926893211711491  1.0000
  O   O1475     1.0  0.68839824666035  0.8856198073124497  0.7260192446907798  1.0000
  O   O1476     1.0  0.8856172784691144  0.8115999460694336  0.8093531848811386  1.0000
  O   O1477     1.0  0.7189497918079768  0.6883999511941188  0.8093526444268099  1.0000
  O   O1478     1.0  0.9477214486630753  0.9782678098294219  0.809356803061762  1.0000
  O   O1479     1.0  0.9782655553779049  0.8856109953076234  0.8926907399473348  1.0000
  O   O1480     1.0  0.8550664701566452  0.9477147261205295  0.7260192306980718  1.0000
  O   O1481     1.0  0.6666641289484919  0.8333335577677159  0.8381123072539277  1.0000
  O   O1482     1.0  0.666665060265498  0.6666700916117643  0.7547789306223994  1.0000
  O   O1483     1.0  0.6666674608937758  0.8333334179632739  0.6714465771089264  1.0000
  O   O1484     1.0  0.8333328826189172  0.8333299503641143  0.7547792814513378  1.0000
  O   O1485     1.0  0.7422001213947872  0.7913499625007656  0.8419190844097952  1.0000
  O   O1486     1.0  0.8753128075596757  0.9088716387704552  0.925254879818036  1.0000
  O   O1487     1.0  0.7913503773629189  0.7577977329528429  0.9252552520695142  1.0000
  O   O1488     1.0  0.7577985035260025  0.7086475795768861  0.6752550256502317  1.0000
  O   O1489     1.0  0.924465058922719  0.7913518374818923  0.6752548691658417  1.0000
  O   O1490     1.0  0.9088685179369194  0.7086494972937714  0.8419206018755491  1.0000
  O   O1491     1.0  0.7086498186510144  0.9244626100220785  0.9252533382600276  1.0000
  O   O1492     1.0  0.9580176202035328  0.7422002662029316  0.9252541166788376  1.0000
  O   O1493     1.0  0.9745335333721756  0.9415754707799573  0.9683222714031564  1.0000
  O   O1494     1.0  0.8917559424216563  0.974532630410749  0.8849892512211753  1.0000
  O   O1495     1.0  0.7749066662089699  0.6921392219388004  0.8849843038104509  1.0000
  O   O1496     1.0  0.6921396385471693  0.7250907906793438  0.9683191837834677  1.0000
  O   O1497     1.0  0.8588046135292795  0.7749091177864657  0.9683206416794641  1.0000
  O   O1498     1.0  0.9745336734083623  0.725092024765646  0.8016584713302496  1.0000
  O   O1499     1.0  0.7250894967672104  0.8587998578571687  0.8849882256316297  1.0000
  O   O1500     1.0  0.7749093304550253  0.9745273361568388  0.7183205677678601  1.0000
  O   O1501     1.0  0.7810544914993789  0.8550650373454836  0.8093558930044543  1.0000
  O   O1502     1.0  0.9782658214424359  0.7810560301784638  0.7260242136741143  1.0000
  O   O1503     1.0  0.85506402940023  0.7189490699273496  0.8926863945737236  1.0000
  O   O1504     1.0  0.7189499197986841  0.978266412434774  0.9760199962950584  1.0000
  O   O1505     1.0  0.8856166804295393  0.85506658660303  0.9760200556379638  1.0000
  O   O1506     1.0  0.7810546584327489  0.8116000735829212  0.9760238440012958  1.0000
  O   O1507     1.0  0.8115993680496909  0.7189428700979753  0.7260246586171353  1.0000
  O   O1508     1.0  0.6883974645394033  0.781050660849358  0.8926861962618963  1.0000
  O   O1509     1.0  0.8333344654220713  0.6666663640754013  0.6714462703492999  1.0000
  O   O1510     1.0  0.8333322767144087  0.8333340825188096  0.9214467061109286  1.0000
  O   O1511     1.0  0.8333333394928831  0.6666659652637038  0.838111324163005  1.0000
  O   O1512     1.0  0.6666674569429905  0.6666655056067347  0.9214452034536476  1.0000
