data_image0
_chemical_formula_structural       Na16Ca16Al48Si72H128O304
_chemical_formula_sum              "Na16 Ca16 Al48 Si72 H128 O304"
_cell_length_a       6.589410744644416
_cell_length_b       18.675228111580942
_cell_length_c       57.19641223612871
_cell_angle_alpha    89.99999783231146
_cell_angle_beta     90.00000201597587
_cell_angle_gamma    89.99999985121258

_space_group_name_H-M_alt    "P 1"
_space_group_IT_number       1

loop_
  _space_group_symop_operation_xyz
  'x, y, z'

loop_
  _atom_site_type_symbol
  _atom_site_label
  _atom_site_symmetry_multiplicity
  _atom_site_fract_x
  _atom_site_fract_y
  _atom_site_fract_z
  _atom_site_occupancy
  Na  Na1       1.0  0.6224915519713572  0.7840326617366188  0.9889505705051774  1.0000
  Na  Na2       1.0  0.6224916188934824  0.7159676140402089  0.5110496590804751  1.0000
  Na  Na3       1.0  0.8724910284455066  0.965967929825408  0.7389505180866932  1.0000
  Na  Na4       1.0  0.8724913638392293  0.5340319735447019  0.761049506625091  1.0000
  Na  Na5       1.0  0.12249235774480244  0.7840319992532291  0.4889505524458017  1.0000
  Na  Na6       1.0  0.12249123464778086  0.7159678676567626  0.011049396010473665  1.0000
  Na  Na7       1.0  0.37249207460020445  0.9659675270264506  0.2389504406424571  1.0000
  Na  Na8       1.0  0.3724913400005701  0.5340324184175628  0.26104940259928683  1.0000
  Na  Na9       1.0  0.12249224009901986  0.2840323790086512  0.9889503893606124  1.0000
  Na  Na10      1.0  0.122492517178461  0.21596760839139015  0.5110496169684926  1.0000
  Na  Na11      1.0  0.3724927475156716  0.4659673770819944  0.7389506340703997  1.0000
  Na  Na12      1.0  0.37249230252215587  0.03403219062491205  0.7610495186473943  1.0000
  Na  Na13      1.0  0.6224911359864924  0.284032502581499  0.4889505108488851  1.0000
  Na  Na14      1.0  0.622493082609933  0.21596713362741524  0.011049448797322175  1.0000
  Na  Na15      1.0  0.8724913356519295  0.4659681096163198  0.23895052598676178  1.0000
  Na  Na16      1.0  0.8724913417089027  0.034032476992599786  0.2610494737797757  1.0000
  Ca  Ca1       1.0  0.37037173338628837  0.5231090786831373  0.9223997769399006  1.0000
  Ca  Ca2       1.0  0.37037107344617726  0.9768904476540191  0.5776001080471606  1.0000
  Ca  Ca3       1.0  0.12037295441305959  0.7268914923106753  0.6723998903275287  1.0000
  Ca  Ca4       1.0  0.12037096982496773  0.773109201041168  0.8275998863569577  1.0000
  Ca  Ca5       1.0  0.870371294862977  0.5231091835188133  0.42239989726547994  1.0000
  Ca  Ca6       1.0  0.8703722978947824  0.9768908358601569  0.07760022992034878  1.0000
  Ca  Ca7       1.0  0.6203714339847002  0.7268910656877705  0.1724000429943654  1.0000
  Ca  Ca8       1.0  0.6203710335383942  0.7731090854780515  0.327599972468002  1.0000
  Ca  Ca9       1.0  0.8703715980449399  0.02311007108606639  0.9223999786078734  1.0000
  Ca  Ca10      1.0  0.8703723932379551  0.4768908791608806  0.5776001247834257  1.0000
  Ca  Ca11      1.0  0.6203731440941593  0.22689162358577553  0.6723999008918158  1.0000
  Ca  Ca12      1.0  0.6203722969664902  0.27310924169017153  0.8275999619980061  1.0000
  Ca  Ca13      1.0  0.3703717620347383  0.02310920395880749  0.42239977463594874  1.0000
  Ca  Ca14      1.0  0.3703714108997893  0.47689088451870115  0.07760001802050784  1.0000
  Ca  Ca15      1.0  0.12037282765229441  0.2268907150375623  0.17239982184664282  1.0000
  Ca  Ca16      1.0  0.12037142226876116  0.27310943650825853  0.32760026209557574  1.0000
  Al  Al1       1.0  0.6438033432048995  0.9620358350047182  0.9696998152288775  1.0000
  Al  Al2       1.0  0.6438041434110524  0.5379636334118437  0.5302999711320242  1.0000
  Al  Al3       1.0  0.8938049237041183  0.7879632148226833  0.7196999371323985  1.0000
  Al  Al4       1.0  0.893803809644265  0.7120359044160143  0.7803002368864905  1.0000
  Al  Al5       1.0  0.3570412885803083  0.7985179586188904  0.8877034017759692  1.0000
  Al  Al6       1.0  0.3570412094916924  0.7014820860853928  0.6122965160115751  1.0000
  Al  Al7       1.0  0.6070418037834213  0.9514822260391422  0.6377035843072689  1.0000
  Al  Al8       1.0  0.6070416377538074  0.5485174261595924  0.8622963632248891  1.0000
  Al  Al9       1.0  0.3575247304038054  0.7147299889445621  0.9479060944980339  1.0000
  Al  Al10      1.0  0.3575251144224352  0.7852698507762571  0.5520940967018542  1.0000
  Al  Al11      1.0  0.10752895751731198  0.5352699849217183  0.6979058277579128  1.0000
  Al  Al12      1.0  0.1075251165720468  0.9647306699364214  0.8020939906133978  1.0000
  Al  Al13      1.0  0.14380239496451194  0.9620367022408269  0.4696998838972055  1.0000
  Al  Al14      1.0  0.14380291373786835  0.5379634419796462  0.030300092058556372  1.0000
  Al  Al15      1.0  0.39380261458977484  0.7879644800704114  0.2196994285739154  1.0000
  Al  Al16      1.0  0.39380284683134015  0.7120359163920084  0.2803001086304107  1.0000
  Al  Al17      1.0  0.8570417701436868  0.7985174320650792  0.38770370731353365  1.0000
  Al  Al18      1.0  0.8570433062369236  0.7014825779584193  0.11229640805007797  1.0000
  Al  Al19      1.0  0.10704282255562722  0.9514825008078828  0.13770356825582092  1.0000
  Al  Al20      1.0  0.10704092310798129  0.5485178710947338  0.3622964894258435  1.0000
  Al  Al21      1.0  0.8575258957746665  0.7147293174541716  0.44790604908101844  1.0000
  Al  Al22      1.0  0.8575256975394143  0.785269488060403  0.05209382805234131  1.0000
  Al  Al23      1.0  0.6075261002181083  0.5352703632923015  0.19790594757824298  1.0000
  Al  Al24      1.0  0.607525088789591  0.9647306696689897  0.3020938607516024  1.0000
  Al  Al25      1.0  0.14380233624092426  0.46203643777257297  0.9696996816725182  1.0000
  Al  Al26      1.0  0.14380202082133176  0.03796406806311828  0.5303003208809243  1.0000
  Al  Al27      1.0  0.3938036805521815  0.2879636338889167  0.7196998975045249  1.0000
  Al  Al28      1.0  0.39380289873414415  0.2120353776929165  0.7803003008743775  1.0000
  Al  Al29      1.0  0.8570419356582141  0.2985175658961889  0.8877037298305955  1.0000
  Al  Al30      1.0  0.8570415399458906  0.20148239727900563  0.6122965712701627  1.0000
  Al  Al31      1.0  0.10704064134315824  0.45148195819424564  0.637703650290148  1.0000
  Al  Al32      1.0  0.1070427980158389  0.048517282282980974  0.8622963487457488  1.0000
  Al  Al33      1.0  0.8575257609646171  0.21472960137659816  0.9479060123908749  1.0000
  Al  Al34      1.0  0.8575264533050073  0.2852703140373559  0.5520940500037477  1.0000
  Al  Al35      1.0  0.6075258001273898  0.03526961331637958  0.6979059988577739  1.0000
  Al  Al36      1.0  0.6075264373928158  0.46472969273744436  0.8020939917155103  1.0000
  Al  Al37      1.0  0.6438041770352085  0.46203580873652467  0.4696998828300897  1.0000
  Al  Al38      1.0  0.6438041859292576  0.03796424729952614  0.030300115600633303  1.0000
  Al  Al39      1.0  0.8938039638739981  0.28796366160956033  0.2196997862355478  1.0000
  Al  Al40      1.0  0.8938031625331745  0.21203605883455293  0.280300237355291  1.0000
  Al  Al41      1.0  0.3570417100547896  0.29851739812692646  0.38770350854330077  1.0000
  Al  Al42      1.0  0.3570429984466276  0.20148311317252662  0.1122965490621488  1.0000
  Al  Al43      1.0  0.6070394400264552  0.45148294745157563  0.13770351806886513  1.0000
  Al  Al44      1.0  0.6070425869785882  0.04851751602149056  0.36229625262022497  1.0000
  Al  Al45      1.0  0.35752558448883115  0.21472994789862646  0.44790599089531796  1.0000
  Al  Al46      1.0  0.3575244137864982  0.28526914438095946  0.05209390195836998  1.0000
  Al  Al47      1.0  0.10752609532409042  0.03526967447767033  0.1979060691090606  1.0000
  Al  Al48      1.0  0.10752628573409992  0.46473037341831414  0.3020938829506479  1.0000
  Si  Si1       1.0  0.2561145074942624  4.15308872015952e-09  2.399129173006549e-08  1.0000
  Si  Si2       1.0  0.5061144720242851  0.7500001698929945  0.7499997660970795  1.0000
  Si  Si3       1.0  0.9727875275029657  0.7445244331038782  0.918199050808544  1.0000
  Si  Si4       1.0  0.9727871704475061  0.7554760420281883  0.5818010001516238  1.0000
  Si  Si5       1.0  0.7227877244929589  0.5054757558165947  0.6681995252460526  1.0000
  Si  Si6       1.0  0.7227859970155291  0.994524417062795  0.8318009225785871  1.0000
  Si  Si7       1.0  0.3835759523463066  0.5950294097237673  0.9856699094355877  1.0000
  Si  Si8       1.0  0.38357544092773505  0.9049711461869263  0.5143299777779712  1.0000
  Si  Si9       1.0  0.13357551714316407  0.654970744153648  0.7356699085173203  1.0000
  Si  Si10      1.0  0.13357542083727136  0.8450290882963087  0.7643300430248623  1.0000
  Si  Si11      1.0  0.5965607012973815  0.6633460273821437  0.9029344580068821  1.0000
  Si  Si12      1.0  0.5965617229174175  0.8366546278264331  0.5970656525329172  1.0000
  Si  Si13      1.0  0.3465617088289177  0.5866543583768894  0.6529344082922224  1.0000
  Si  Si14      1.0  0.3465600004546241  0.9133452206549515  0.8470656075910412  1.0000
  Si  Si15      1.0  0.601073306520051  0.8478262105200413  0.9301923256355905  1.0000
  Si  Si16      1.0  0.6010743901436668  0.652173208004093  0.5698079345023757  1.0000
  Si  Si17      1.0  0.8510745935039333  0.9021732136546704  0.6801922983694835  1.0000
  Si  Si18      1.0  0.8510722726475941  0.597826855911416  0.8198078210816228  1.0000
  Si  Si19      1.0  0.7561140164413802  4.3197563653804374e-08  0.5000000094737672  1.0000
  Si  Si20      1.0  0.006114606313802506  0.7499999614665087  0.24999991543817382  1.0000
  Si  Si21      1.0  0.4727875526885918  0.7445242784730147  0.41819922411116306  1.0000
  Si  Si22      1.0  0.4727872510027877  0.755476151609691  0.08180083367695183  1.0000
  Si  Si23      1.0  0.22278661911034475  0.5054755303896921  0.16819923620302438  1.0000
  Si  Si24      1.0  0.22278464334153414  0.9945243659304591  0.3318006074069048  1.0000
  Si  Si25      1.0  0.8835765954855416  0.5950292594253643  0.48566982680178633  1.0000
  Si  Si26      1.0  0.8835772300441287  0.9049710041868391  0.014330112087272858  1.0000
  Si  Si27      1.0  0.6335750528544833  0.6549710807981508  0.2356698061609212  1.0000
  Si  Si28      1.0  0.6335754606368915  0.8450290243335095  0.2643300119896339  1.0000
  Si  Si29      1.0  0.09656201940280362  0.6633456624411849  0.40293421414774266  1.0000
  Si  Si30      1.0  0.0965610011934917  0.8366543918720533  0.09706540091348705  1.0000
  Si  Si31      1.0  0.8465627538682536  0.5866540900971298  0.15293421629005385  1.0000
  Si  Si32      1.0  0.8465598422801252  0.9133450602625879  0.3470654662247351  1.0000
  Si  Si33      1.0  0.10107320903344404  0.8478265842789098  0.4301921540140751  1.0000
  Si  Si34      1.0  0.10107577615533227  0.6521735822162148  0.06980783598488381  1.0000
  Si  Si35      1.0  0.35107433588341475  0.9021736938391645  0.18019200695156942  1.0000
  Si  Si36      1.0  0.35107250406027246  0.5978265608094384  0.3198078962646549  1.0000
  Si  Si37      1.0  0.7561143549752192  0.5000002703857467  0.9999999138672768  1.0000
  Si  Si38      1.0  0.006115562214502804  0.24999946974830445  0.7500000577662892  1.0000
  Si  Si39      1.0  0.47278761663508784  0.2445239429972971  0.9181992586972023  1.0000
  Si  Si40      1.0  0.4727863446837274  0.25547562422967535  0.5818009147357911  1.0000
  Si  Si41      1.0  0.2227867315150274  0.005475651356325888  0.6681993378672433  1.0000
  Si  Si42      1.0  0.22278728006776852  0.4945246366502192  0.8318007103249828  1.0000
  Si  Si43      1.0  0.8835756544293285  0.0950291800711298  0.9856699124978603  1.0000
  Si  Si44      1.0  0.8835783888727777  0.40497097725333675  0.5143300799594269  1.0000
  Si  Si45      1.0  0.6335755644537698  0.1549710621451405  0.7356701183494864  1.0000
  Si  Si46      1.0  0.6335767302662395  0.3450288136236701  0.7643301921542422  1.0000
  Si  Si47      1.0  0.0965607471544999  0.1633454809549416  0.9029345691079312  1.0000
  Si  Si48      1.0  0.09656180230954374  0.33665458747459714  0.5970657179799385  1.0000
  Si  Si49      1.0  0.8465632585369757  0.0866542740250148  0.6529343309279781  1.0000
  Si  Si50      1.0  0.8465619027523325  0.4133454735482333  0.8470655585738606  1.0000
  Si  Si51      1.0  0.10107528801306082  0.34782622644669237  0.9301922718905226  1.0000
  Si  Si52      1.0  0.10107304196497682  0.1521733005773083  0.5698080203405056  1.0000
  Si  Si53      1.0  0.35107416423600507  0.4021733747295695  0.6801923487426521  1.0000
  Si  Si54      1.0  0.35107402068551186  0.0978268101376598  0.8198079819208661  1.0000
  Si  Si55      1.0  0.25611416505738177  0.5000003219345088  0.5000000488984951  1.0000
  Si  Si56      1.0  0.5061156584679751  0.25000012806732186  0.2499998476445583  1.0000
  Si  Si57      1.0  0.9727874557100835  0.24452420115080273  0.41819908741716105  1.0000
  Si  Si58      1.0  0.972786614190287  0.2554758106850967  0.08180094500334652  1.0000
  Si  Si59      1.0  0.7227868175930648  0.0054756993662153355  0.168199304707741  1.0000
  Si  Si60      1.0  0.7227878566078888  0.49452457750412054  0.33180096315682345  1.0000
  Si  Si61      1.0  0.3835757176231986  0.09502896361063753  0.4856699738496304  1.0000
  Si  Si62      1.0  0.38357768343579696  0.40497057386228363  0.014330001968777522  1.0000
  Si  Si63      1.0  0.13357602373339622  0.15497095740445369  0.23566996859811798  1.0000
  Si  Si64      1.0  0.13357495293634597  0.34502860684173803  0.26432991383060267  1.0000
  Si  Si65      1.0  0.5965610561365031  0.16334540303111827  0.40293448382034125  1.0000
  Si  Si66      1.0  0.5965610166475296  0.33665474516268845  0.09706542721578489  1.0000
  Si  Si67      1.0  0.34656165208867057  0.08665456869853418  0.15293439398886727  1.0000
  Si  Si68      1.0  0.3465619350921979  0.4133456322741241  0.34706558804342574  1.0000
  Si  Si69      1.0  0.6010736859939617  0.3478261756319109  0.43019208071861215  1.0000
  Si  Si70      1.0  0.6010734174225686  0.15217319048383388  0.06980793165142293  1.0000
  Si  Si71      1.0  0.8510733996955575  0.4021731242564873  0.18019215700499222  1.0000
  Si  Si72      1.0  0.8510740741417707  0.09782691490178906  0.3198076464437114  1.0000
  H   H1        1.0  0.25108241506398316  0.9749923951074552  0.9497568505114692  1.0000
  H   H2        1.0  0.25108443237229233  0.525007813062009  0.5502433088547629  1.0000
  H   H3        1.0  0.5010849785417644  0.7750070787003501  0.6997566232753241  1.0000
  H   H4        1.0  0.5010848265593827  0.7249924809008983  0.8002431710936123  1.0000
  H   H5        1.0  0.25779164231638085  0.9385372724227117  0.9249250168826271  1.0000
  H   H6        1.0  0.25779334003437904  0.5614628997869289  0.5750750360855308  1.0000
  H   H7        1.0  0.5077934447733182  0.8114626580105078  0.6749248503547918  1.0000
  H   H8        1.0  0.507792266429141  0.6885367340230701  0.825074879438518  1.0000
  H   H9        1.0  0.9749404261826796  0.5908775090358555  0.9060749377821655  1.0000
  H   H10       1.0  0.9749404551211062  0.909122490953369  0.593925214803396  1.0000
  H   H11       1.0  0.724941925591675  0.6591222653163947  0.6560748097225076  1.0000
  H   H12       1.0  0.7249391690529717  0.8408774231163096  0.8439251461373002  1.0000
  H   H13       1.0  0.9883421875751  0.5199350989173561  0.8914219363502766  1.0000
  H   H14       1.0  0.9883429506761321  0.9800653779425863  0.6085781440014052  1.0000
  H   H15       1.0  0.738343073957468  0.7300646163061706  0.6414218268000554  1.0000
  H   H16       1.0  0.7383406122745778  0.7699347964243205  0.8585780605602924  1.0000
  H   H17       1.0  0.9484001169607011  0.7044540283521298  0.966460306270322  1.0000
  H   H18       1.0  0.9483994346446666  0.7955459357937771  0.5335396949763243  1.0000
  H   H19       1.0  0.6983992116150081  0.5455458452430795  0.716460263432482  1.0000
  H   H20       1.0  0.6983984126169719  0.954453551819128  0.7835396869262153  1.0000
  H   H21       1.0  0.8046984277502363  0.65314684942245  0.9815281973728028  1.0000
  H   H22       1.0  0.804697995285783  0.8468528560748544  0.518471885381949  1.0000
  H   H23       1.0  0.5546973800355585  0.5968530785612283  0.7315281420543414  1.0000
  H   H24       1.0  0.55469761471251  0.9031468023155951  0.7684716238792916  1.0000
  H   H25       1.0  0.8808248154324367  0.8842460589071331  0.8962986485797615  1.0000
  H   H26       1.0  0.8808241599853156  0.6157542137368107  0.6037012478339485  1.0000
  H   H27       1.0  0.1308251086738251  0.8657542171091576  0.6462988383279904  1.0000
  H   H28       1.0  0.130824010866886  0.6342459030642332  0.8537011363019814  1.0000
  H   H29       1.0  0.8651478587809659  0.9472899446281682  0.8769989701091719  1.0000
  H   H30       1.0  0.8651497941837597  0.5527100080956829  0.6230011347504997  1.0000
  H   H31       1.0  0.11514868883128296  0.8027097661209608  0.6269989121195048  1.0000
  H   H32       1.0  0.11514914917124619  0.6972897364944756  0.873001175649651  1.0000
  H   H33       1.0  0.751082797113146  0.9749921351534372  0.44975682203365036  1.0000
  H   H34       1.0  0.7510842557490807  0.5250074273182701  0.05024321493480886  1.0000
  H   H35       1.0  0.0010825023704050807  0.7750077197913213  0.19975671206306847  1.0000
  H   H36       1.0  0.001084377900118394  0.7249916496389143  0.3002431740409728  1.0000
  H   H37       1.0  0.7577913793805808  0.9385366576417122  0.424925184351971  1.0000
  H   H38       1.0  0.7577919461843919  0.5614632967748187  0.07507485653404007  1.0000
  H   H39       1.0  0.007792114254263405  0.8114630203059665  0.17492498325850542  1.0000
  H   H40       1.0  0.007791936117486298  0.6885366078788092  0.3250749350531661  1.0000
  H   H41       1.0  0.47494111022364327  0.5908773704483447  0.4060748627222665  1.0000
  H   H42       1.0  0.4749421238145941  0.9091224090594066  0.09392507492661138  1.0000
  H   H43       1.0  0.22494077623092137  0.6591226512128502  0.15607470764024786  1.0000
  H   H44       1.0  0.22493930808266138  0.8408775959836569  0.34392489027080014  1.0000
  H   H45       1.0  0.4883421137082733  0.5199349359954786  0.39142195371709537  1.0000
  H   H46       1.0  0.48834277078850186  0.9800647400427976  0.10857789016888576  1.0000
  H   H47       1.0  0.2383425793327791  0.7300648368105025  0.14142180327859957  1.0000
  H   H48       1.0  0.2383416859506377  0.7699352119184992  0.35857791848518017  1.0000
  H   H49       1.0  0.44839946939908554  0.7044543250243649  0.46646026913679217  1.0000
  H   H50       1.0  0.44840151836011  0.7955460361461574  0.033539579402271744  1.0000
  H   H51       1.0  0.19839903270022508  0.5455459474248988  0.21646021229204074  1.0000
  H   H52       1.0  0.19839861275200116  0.9544541723625902  0.28353960229440395  1.0000
  H   H53       1.0  0.3046986995296976  0.6531472880409145  0.48152814094170787  1.0000
  H   H54       1.0  0.30470004049093685  0.8468529297456614  0.01847172443403677  1.0000
  H   H55       1.0  0.05469910291979959  0.5968530142812105  0.2315282030747784  1.0000
  H   H56       1.0  0.054698678828103135  0.9031471505184522  0.2684717445791268  1.0000
  H   H57       1.0  0.38082465321580217  0.8842462320540777  0.3962987848218153  1.0000
  H   H58       1.0  0.380824884404526  0.6157541533882286  0.1037011570283915  1.0000
  H   H59       1.0  0.6308246792465289  0.8657541806172288  0.1462986653354176  1.0000
  H   H60       1.0  0.6308246623028643  0.6342457863524268  0.3537012677062075  1.0000
  H   H61       1.0  0.36514728404427704  0.947289984314451  0.3769988423770387  1.0000
  H   H62       1.0  0.3651504475121579  0.5527100916364834  0.123001047868221  1.0000
  H   H63       1.0  0.6151488440017226  0.8027100049157619  0.12699881623462708  1.0000
  H   H64       1.0  0.615148233682157  0.6972900714214353  0.3730010434137336  1.0000
  H   H65       1.0  0.7510840165402596  0.47499271584083735  0.9497567619694757  1.0000
  H   H66       1.0  0.7510828031224508  0.025007702055252917  0.5502433493229838  1.0000
  H   H67       1.0  0.0010823322327779827  0.2750079753779326  0.6997568783569282  1.0000
  H   H68       1.0  0.001084397463144926  0.2249927805366886  0.8002433096566416  1.0000
  H   H69       1.0  0.7577929417798539  0.4385375231185142  0.9249250073723942  1.0000
  H   H70       1.0  0.7577928373189877  0.061463024657033495  0.5750750365178542  1.0000
  H   H71       1.0  0.0077911331832902775  0.31146349685989155  0.6749251850294564  1.0000
  H   H72       1.0  0.007791825986564138  0.18853731906084267  0.8250750584279388  1.0000
  H   H73       1.0  0.4749414096395467  0.09087760264949149  0.9060748345046516  1.0000
  H   H74       1.0  0.47494030858573993  0.40912261053770554  0.5939252490607283  1.0000
  H   H75       1.0  0.2249405938330804  0.15912236935999433  0.6560750231613107  1.0000
  H   H76       1.0  0.2249405831872424  0.34087804873016847  0.8439251364933364  1.0000
  H   H77       1.0  0.4883415698147724  0.019935121588888494  0.8914219585622644  1.0000
  H   H78       1.0  0.4883421992806404  0.4800649113115161  0.6085780381417255  1.0000
  H   H79       1.0  0.23834187593427317  0.23006532712385794  0.6414222325189425  1.0000
  H   H80       1.0  0.23834088562594094  0.2699348620561538  0.8585781981439968  1.0000
  H   H81       1.0  0.44839989931444757  0.20445402371674873  0.9664602713915822  1.0000
  H   H82       1.0  0.44839884361109356  0.2955456997268225  0.533539802375764  1.0000
  H   H83       1.0  0.19839944585240865  0.045546086532454684  0.716460269317846  1.0000
  H   H84       1.0  0.1983990419376774  0.45445395901372204  0.7835397091677906  1.0000
  H   H85       1.0  0.3046992531446398  0.15314716270610548  0.9815282721604642  1.0000
  H   H86       1.0  0.30469859600122956  0.34685298312605645  0.5184718523811356  1.0000
  H   H87       1.0  0.05469818265400938  0.09685301733616558  0.7315281497890552  1.0000
  H   H88       1.0  0.05469947037233715  0.403146839640054  0.7684718602439353  1.0000
  H   H89       1.0  0.3808248265665819  0.3842457782126576  0.8962987136935563  1.0000
  H   H90       1.0  0.38082598379614035  0.11575449195115407  0.6037012052926115  1.0000
  H   H91       1.0  0.6308258486698882  0.36575427755710554  0.6462989760571745  1.0000
  H   H92       1.0  0.6308238035309296  0.1342456602613129  0.8537012522764321  1.0000
  H   H93       1.0  0.3651479564857346  0.44729037730611826  0.8769988475668459  1.0000
  H   H94       1.0  0.36515042346590526  0.05270969388828491  0.6230011116116463  1.0000
  H   H95       1.0  0.615150265920579  0.302709555642277  0.6269991165008216  1.0000
  H   H96       1.0  0.615149749422271  0.19728997913295215  0.8730010602732794  1.0000
  H   H97       1.0  0.2510826497617965  0.47499229943302895  0.449756839834528  1.0000
  H   H98       1.0  0.251083637100274  0.025007903678317945  0.05024322136524594  1.0000
  H   H99       1.0  0.5010835287430353  0.2750074596306352  0.19975659276368127  1.0000
  H   H100      1.0  0.5010839592424711  0.22499276779590774  0.3002431751380425  1.0000
  H   H101      1.0  0.25779318686654623  0.4385368418597684  0.4249251108211707  1.0000
  H   H102      1.0  0.25779337759711274  0.06146332929729847  0.07507493225432353  1.0000
  H   H103      1.0  0.5077926822800681  0.3114627622626167  0.174924837529578  1.0000
  H   H104      1.0  0.5077922813201684  0.1885372522753755  0.3250748485696948  1.0000
  H   H105      1.0  0.9749408633806681  0.09087772560829965  0.406074959542354  1.0000
  H   H106      1.0  0.9749406367979307  0.4091224936200854  0.09392526095186224  1.0000
  H   H107      1.0  0.7249414004353933  0.15912239487637686  0.15607481755818928  1.0000
  H   H108      1.0  0.7249404949729664  0.3408776314068064  0.34392514114486966  1.0000
  H   H109      1.0  0.9883415170205154  0.01993493639944171  0.3914220469503651  1.0000
  H   H110      1.0  0.9883413885441547  0.48006473928238  0.10857803638735715  1.0000
  H   H111      1.0  0.7383431423234483  0.23006468689783988  0.14142183355767352  1.0000
  H   H112      1.0  0.73834205539343  0.2699348944722969  0.358578001112589  1.0000
  H   H113      1.0  0.9484001174528541  0.20445382476822663  0.4664603818992301  1.0000
  H   H114      1.0  0.9483996245340964  0.2955459250711087  0.03353974987752517  1.0000
  H   H115      1.0  0.698399697392963  0.045545590511125486  0.21646013546373305  1.0000
  H   H116      1.0  0.698400249997509  0.4544538582776618  0.2835396189783833  1.0000
  H   H117      1.0  0.8046984368267187  0.15314712107198183  0.48152830730710733  1.0000
  H   H118      1.0  0.8046990640452066  0.346852729362711  0.0184717463668515  1.0000
  H   H119      1.0  0.5546980737728395  0.09685282916423933  0.23152808103256567  1.0000
  H   H120      1.0  0.5546984675903678  0.40314696951113393  0.26847168811625133  1.0000
  H   H121      1.0  0.8808249526436293  0.38424566879587874  0.3962987191087972  1.0000
  H   H122      1.0  0.8808259140657715  0.11575439625123728  0.10370123211621751  1.0000
  H   H123      1.0  0.13082534276927893  0.3657542269506489  0.14629867298884536  1.0000
  H   H124      1.0  0.13082464744221203  0.1342455375033944  0.353701217680857  1.0000
  H   H125      1.0  0.865149599400413  0.4472899013481572  0.3769988991505021  1.0000
  H   H126      1.0  0.8651500985071608  0.05270977854383234  0.12300098781135382  1.0000
  H   H127      1.0  0.11514918998834305  0.3027102091182109  0.1269988739624789  1.0000
  H   H128      1.0  0.11514794834313531  0.19729000457315576  0.3730010184151421  1.0000
  O   O1        1.0  0.09575944748482165  0.7294637113202312  0.9424897476890278  1.0000
  O   O2        1.0  0.09575772555650722  0.7705358922440676  0.557510212261161  1.0000
  O   O3        1.0  0.8457624622404581  0.5205354510736238  0.6924900566187927  1.0000
  O   O4        1.0  0.8457589674443952  0.9794641276383249  0.8075103197174665  1.0000
  O   O5        1.0  0.1243449870022681  0.7600999346788776  0.8965649402091729  1.0000
  O   O6        1.0  0.12434544748655597  0.7399001692949594  0.603434984386776  1.0000
  O   O7        1.0  0.37434460594010854  0.989901045326134  0.6465650643434382  1.0000
  O   O8        1.0  0.3743431044579921  0.5100993225680559  0.8534351232970664  1.0000
  O   O9        1.0  0.390375288267453  0.9802734502322785  0.9770376519080505  1.0000
  O   O10       1.0  0.3903747284219234  0.5197265562352315  0.5229623423358265  1.0000
  O   O11       1.0  0.6403747775638978  0.7697274257988345  0.727037573809276  1.0000
  O   O12       1.0  0.6403760312511928  0.7302731538869862  0.772962180974982  1.0000
  O   O13       1.0  0.662111828820654  0.9251565883343336  0.941606937475777  1.0000
  O   O14       1.0  0.6621117294028624  0.574842727628526  0.5583930754810583  1.0000
  O   O15       1.0  0.9121108175416246  0.8248438491447289  0.691607389834496  1.0000
  O   O16       1.0  0.9121114962373268  0.6751568386555364  0.8083931632503248  1.0000
  O   O17       1.0  0.5748257767501516  0.5857231690405956  0.8902553946601542  1.0000
  O   O18       1.0  0.5748241151630799  0.9142784609187504  0.6097441050359613  1.0000
  O   O19       1.0  0.3248239431860603  0.664278166164912  0.640255851114265  1.0000
  O   O20       1.0  0.324819959065831  0.8357221129641378  0.8597441950567403  1.0000
  O   O21       1.0  0.39075242923012277  0.6765997147197779  0.9757677394673031  1.0000
  O   O22       1.0  0.3907502850932642  0.8234003619582313  0.524232158208136  1.0000
  O   O23       1.0  0.14075132719540046  0.5734009140358343  0.7257675869854007  1.0000
  O   O24       1.0  0.14075114056833787  0.9265997859924973  0.7742320891884659  1.0000
  O   O25       1.0  0.4508212508642116  0.6554200285058778  0.9261894746134061  1.0000
  O   O26       1.0  0.4508224553183196  0.844579601513099  0.573810635009806  1.0000
  O   O27       1.0  0.20082254542495304  0.5945797439960945  0.676189415337786  1.0000
  O   O28       1.0  0.2008215056530956  0.9054212790498428  0.8238105300807644  1.0000
  O   O29       1.0  0.44216593276778055  0.86079699034948  0.9087848831417781  1.0000
  O   O30       1.0  0.44216641085772385  0.6392020752859333  0.5912153251369882  1.0000
  O   O31       1.0  0.6921670936253154  0.8892029133562065  0.6587851114799187  1.0000
  O   O32       1.0  0.6921668820105185  0.6107977763565988  0.8412153742678469  1.0000
  O   O33       1.0  0.7437834256116268  0.9047090150444121  0.9909133497775019  1.0000
  O   O34       1.0  0.7437813819250547  0.5952919975908683  0.5090864486454  1.0000
  O   O35       1.0  0.9937835108040106  0.8452912793626391  0.7409132550364457  1.0000
  O   O36       1.0  0.9937818142198779  0.6547085280281325  0.7590866271714669  1.0000
  O   O37       1.0  0.29310047375724935  0.540194188392733  0.9657333612130485  1.0000
  O   O38       1.0  0.2931021135466086  0.9598063364788076  0.5342668231200217  1.0000
  O   O39       1.0  0.043102390135813615  0.7098060388322935  0.7157333580405412  1.0000
  O   O40       1.0  0.04310155931810397  0.790193847606726  0.784266734171855  1.0000
  O   O41       1.0  0.5421940219871642  0.7303609604218863  0.886137769062288  1.0000
  O   O42       1.0  0.5421952283125183  0.7696392289902105  0.6138622825766931  1.0000
  O   O43       1.0  0.29219475019622193  0.519639408689277  0.6361375902309606  1.0000
  O   O44       1.0  0.29219383411882927  0.9803596900021849  0.8638624927919426  1.0000
  O   O45       1.0  0.5037259780507493  0.7937294517665703  0.9496910081543641  1.0000
  O   O46       1.0  0.5037244202504212  0.706269272700321  0.5503090298804044  1.0000
  O   O47       1.0  0.7537240817624861  0.9562703922280966  0.6996905277969944  1.0000
  O   O48       1.0  0.7537203468357381  0.5437302296082545  0.8003095291825855  1.0000
  O   O49       1.0  0.8174671451255183  0.8127863189560035  0.9206121069343791  1.0000
  O   O50       1.0  0.817467123055643  0.6872142088532543  0.5793879219153033  1.0000
  O   O51       1.0  0.06746551948118942  0.9372143631046989  0.6706123324743972  1.0000
  O   O52       1.0  0.06746514924759382  0.56278616758388  0.8293878639057671  1.0000
  O   O53       1.0  0.836547698890817  0.6721141312692344  0.9119166031807706  1.0000
  O   O54       1.0  0.8365485927454874  0.8278864723539568  0.5880836199487472  1.0000
  O   O55       1.0  0.586548966594598  0.5778861921633512  0.6619164448660984  1.0000
  O   O56       1.0  0.5865464871236966  0.9221140490312766  0.8380835261065016  1.0000
  O   O57       1.0  0.6168263424604361  0.5699492536040416  0.9926766806683425  1.0000
  O   O58       1.0  0.6168255683001217  0.9300512430225596  0.5073231896462447  1.0000
  O   O59       1.0  0.3668256519750363  0.6800509289703455  0.7426767800067322  1.0000
  O   O60       1.0  0.3668259911593861  0.8199493822626898  0.7573230564360858  1.0000
  O   O61       1.0  0.1791068533983739  0.9720761443506366  0.9345744468045744  1.0000
  O   O62       1.0  0.17910807544000648  0.5279237915749226  0.5654255522775193  1.0000
  O   O63       1.0  0.4291085843576818  0.7779237749733132  0.6845743953857071  1.0000
  O   O64       1.0  0.42910793331810665  0.7220761003335374  0.8154253856446311  1.0000
  O   O65       1.0  0.06404106465195579  0.549677800919965  0.902568771045958  1.0000
  O   O66       1.0  0.06404171112326622  0.9503219329861529  0.5974313531431579  1.0000
  O   O67       1.0  0.8140424176631961  0.7003221461232894  0.6525688032046033  1.0000
  O   O68       1.0  0.8140402196793145  0.7996780024374681  0.8474310969218287  1.0000
  O   O69       1.0  0.8770626831351604  0.6990459869935993  0.9817684487260452  1.0000
  O   O70       1.0  0.8770638637241551  0.8009539948621702  0.5182314739714878  1.0000
  O   O71       1.0  0.6270639579254853  0.5509541660158218  0.7317685312198591  1.0000
  O   O72       1.0  0.6270640644999014  0.9490459677028451  0.7682313803164487  1.0000
  O   O73       1.0  0.9011689958179389  0.9352877576939391  0.8933004337784852  1.0000
  O   O74       1.0  0.9011672264634633  0.5647123802674162  0.6066995192067712  1.0000
  O   O75       1.0  0.15116777016909078  0.814712214571162  0.6433002271238771  1.0000
  O   O76       1.0  0.15116673841512257  0.6852877135111651  0.856699593381043  1.0000
  O   O77       1.0  0.595759499333793  0.7294642702605658  0.4424899007835101  1.0000
  O   O78       1.0  0.5957596939565479  0.7705356615460933  0.05751015857120957  1.0000
  O   O79       1.0  0.34575874560671627  0.5205359921681665  0.19248990233887833  1.0000
  O   O80       1.0  0.34575822760302516  0.9794641176056863  0.30751000169442133  1.0000
  O   O81       1.0  0.6243439408936933  0.7600992042095372  0.39656489677548945  1.0000
  O   O82       1.0  0.6243452686308526  0.7399006810828566  0.10343496479033558  1.0000
  O   O83       1.0  0.8743429184047343  0.989900883729148  0.1465647931795436  1.0000
  O   O84       1.0  0.8743454850617698  0.5100986893556491  0.3534351757900188  1.0000
  O   O85       1.0  0.8903744208419425  0.9802727620249959  0.4770377698438994  1.0000
  O   O86       1.0  0.8903738316380103  0.5197268110915868  0.022962297254808188  1.0000
  O   O87       1.0  0.1403752188766093  0.7697269844856885  0.22703755389922933  1.0000
  O   O88       1.0  0.1403737264597123  0.7302729894985358  0.2729623388957595  1.0000
  O   O89       1.0  0.16211125485216077  0.9251563870150041  0.4416071310977285  1.0000
  O   O90       1.0  0.16211076848169087  0.5748431898741095  0.058393022439262844  1.0000
  O   O91       1.0  0.4121111627088003  0.8248439417541413  0.19160682109403085  1.0000
  O   O92       1.0  0.4121097533844242  0.6751561975286272  0.30839285468447586  1.0000
  O   O93       1.0  0.0748241425396862  0.5857223394241146  0.3902556200297684  1.0000
  O   O94       1.0  0.0748243784644805  0.9142772314226422  0.10974444395439094  1.0000
  O   O95       1.0  0.8248238689244627  0.664277271012522  0.1402554975777567  1.0000
  O   O96       1.0  0.8248243900993569  0.8357222133132585  0.35974443084206176  1.0000
  O   O97       1.0  0.8907522027422213  0.6765994391776421  0.4757677256154284  1.0000
  O   O98       1.0  0.8907538610089584  0.8234002893079562  0.024232079394457266  1.0000
  O   O99       1.0  0.6407540578809282  0.5734002650606401  0.22576787580783444  1.0000
  O   O100      1.0  0.6407530210108903  0.9265994700986544  0.27423218289485174  1.0000
  O   O101      1.0  0.9508239230628736  0.6554207130260612  0.42618934898415484  1.0000
  O   O102      1.0  0.9508234009147677  0.8445801659594656  0.07381028581664918  1.0000
  O   O103      1.0  0.7008241880867778  0.594579645897526  0.17618931031844973  1.0000
  O   O104      1.0  0.7008217815401632  0.9054204855681868  0.3238103211345785  1.0000
  O   O105      1.0  0.942165603030127  0.8607976187874078  0.40878477614426467  1.0000
  O   O106      1.0  0.9421698494798184  0.6392029198960888  0.09121539680939739  1.0000
  O   O107      1.0  0.1921673343843637  0.8892030059516876  0.15878479975410875  1.0000
  O   O108      1.0  0.19216509757809497  0.6107971961223327  0.341215254294341  1.0000
  O   O109      1.0  0.24378202181235864  0.90470854797493  0.49091327999201584  1.0000
  O   O110      1.0  0.24378144732643456  0.5952912972631904  0.009086525481080908  1.0000
  O   O111      1.0  0.4937816290877077  0.8452906568427032  0.2409132888585444  1.0000
  O   O112      1.0  0.4937817770732726  0.6547085324515045  0.2590865242506394  1.0000
  O   O113      1.0  0.7931017714614338  0.5401940108211216  0.46573328034342165  1.0000
  O   O114      1.0  0.7931031691842372  0.9598068868985242  0.034266499827990786  1.0000
  O   O115      1.0  0.5431013522496886  0.7098064891631153  0.21573307003521663  1.0000
  O   O116      1.0  0.5431008981138922  0.7901936053478965  0.2842666131045379  1.0000
  O   O117      1.0  0.0421941448586233  0.7303604196716018  0.38613748791972674  1.0000
  O   O118      1.0  0.042196387210647064  0.7696394783098498  0.1138622507124632  1.0000
  O   O119      1.0  0.7921947218176781  0.5196390038886328  0.13613752329507145  1.0000
  O   O120      1.0  0.7921959247035741  0.9803602496382907  0.3638622887196369  1.0000
  O   O121      1.0  0.0037221865260677845  0.7937296272280192  0.44969054976963946  1.0000
  O   O122      1.0  0.0037240382959058105  0.7062696467063972  0.0503092329333523  1.0000
  O   O123      1.0  0.25372308507097263  0.95627059508593  0.1996901096998478  1.0000
  O   O124      1.0  0.2537240794217799  0.543730391173699  0.3003091635057649  1.0000
  O   O125      1.0  0.3174671618146495  0.8127861263893109  0.4206122704124471  1.0000
  O   O126      1.0  0.3174677993523312  0.6872139075160748  0.07938805435002777  1.0000
  O   O127      1.0  0.5674672234556133  0.9372136391787885  0.1706121412949318  1.0000
  O   O128      1.0  0.5674656693322846  0.5627858606036302  0.3293877099358454  1.0000
  O   O129      1.0  0.3365482494373435  0.6721139743476945  0.411916455012358  1.0000
  O   O130      1.0  0.33654783329325105  0.8278861278116296  0.08808357547038859  1.0000
  O   O131      1.0  0.08654948682925906  0.5778860344084827  0.1619163178333325  1.0000
  O   O132      1.0  0.08654759099075095  0.9221135955604745  0.3380835804036622  1.0000
  O   O133      1.0  0.11682571183946924  0.5699491061238475  0.49267675773398895  1.0000
  O   O134      1.0  0.11682733468228941  0.9300506513197356  0.007323187115399609  1.0000
  O   O135      1.0  0.8668261831882674  0.6800507921984847  0.24267666124630216  1.0000
  O   O136      1.0  0.8668261797749383  0.8199490752392549  0.25732318539671106  1.0000
  O   O137      1.0  0.6791064169735033  0.9720759359505585  0.43457461102095013  1.0000
  O   O138      1.0  0.6791083304696909  0.5279235376007418  0.0654254663441734  1.0000
  O   O139      1.0  0.9291068939667952  0.7779241255838163  0.1845744251218655  1.0000
  O   O140      1.0  0.9291064588737312  0.7220753431235445  0.3154253215152908  1.0000
  O   O141      1.0  0.5640422504255032  0.5496778880006332  0.40256889052061595  1.0000
  O   O142      1.0  0.5640430866011737  0.9503221675494871  0.09743108886545014  1.0000
  O   O143      1.0  0.3140419757006557  0.7003223215913675  0.1525687753368379  1.0000
  O   O144      1.0  0.3140414733962688  0.7996783774820293  0.34743111420703465  1.0000
  O   O145      1.0  0.3770639458582627  0.6990461683491892  0.48176851288814065  1.0000
  O   O146      1.0  0.3770643372550138  0.8009538112248165  0.01823144121920048  1.0000
  O   O147      1.0  0.1270640394501842  0.550953689968771  0.23176843310490344  1.0000
  O   O148      1.0  0.12706365274985912  0.9490462442785559  0.2682313623696321  1.0000
  O   O149      1.0  0.4011669373404277  0.9352880083672148  0.3933003622318665  1.0000
  O   O150      1.0  0.40116692301195084  0.5647121806000001  0.10669948533113625  1.0000
  O   O151      1.0  0.6511678693165164  0.8147124360039596  0.14330029087131368  1.0000
  O   O152      1.0  0.6511666991783945  0.6852877311654196  0.35669960308815896  1.0000
  O   O153      1.0  0.5957598976129054  0.2294636050978787  0.9424897378364842  1.0000
  O   O154      1.0  0.5957598272413929  0.2705358983344594  0.557510345127124  1.0000
  O   O155      1.0  0.3457583512547589  0.02053653432682052  0.6924899289855795  1.0000
  O   O156      1.0  0.34576097857034216  0.4794641736198892  0.8075101456046684  1.0000
  O   O157      1.0  0.6243448592698414  0.26009962811318943  0.8965650504418701  1.0000
  O   O158      1.0  0.6243439677551604  0.23990096899017122  0.6034351425009705  1.0000
  O   O159      1.0  0.8743434037814252  0.4899015234283545  0.6465649779930127  1.0000
  O   O160      1.0  0.874343513060037  0.010099291909091403  0.853435024104958  1.0000
  O   O161      1.0  0.8903754799013044  0.48027312606353284  0.9770376754687868  1.0000
  O   O162      1.0  0.8903740582165754  0.01972663946788707  0.5229623573913994  1.0000
  O   O163      1.0  0.14037477587203598  0.26972695921673684  0.7270376527159151  1.0000
  O   O164      1.0  0.14037576953815142  0.23027307980414408  0.7729624056443476  1.0000
  O   O165      1.0  0.16211131504992443  0.42515705527764774  0.941606781556896  1.0000
  O   O166      1.0  0.1621125210005616  0.07484361648711713  0.5583931005548518  1.0000
  O   O167      1.0  0.41211343333255585  0.32484324930767233  0.6916071160084534  1.0000
  O   O168      1.0  0.4121113591792505  0.17515629165180904  0.8083930197749674  1.0000
  O   O169      1.0  0.07482422219598561  0.08572295355970913  0.8902554803713854  1.0000
  O   O170      1.0  0.0748251061066893  0.4142783560799543  0.6097441492496984  1.0000
  O   O171      1.0  0.8248248493521176  0.16427759654641125  0.640255708981624  1.0000
  O   O172      1.0  0.8248224787389299  0.3357219224467034  0.8597441644931316  1.0000
  O   O173      1.0  0.8907524933660991  0.17659982076253053  0.9757678573370596  1.0000
  O   O174      1.0  0.8907534979558464  0.32340064280934716  0.5242322497719997  1.0000
  O   O175      1.0  0.6407546158955094  0.07340095437783803  0.7257678083432534  1.0000
  O   O176      1.0  0.6407511360107476  0.4265998642289835  0.7742320654820558  1.0000
  O   O177      1.0  0.9508205955890651  0.1554204567525703  0.9261895424692245  1.0000
  O   O178      1.0  0.9508232509905499  0.34457937432817826  0.5738106574824076  1.0000
  O   O179      1.0  0.7008235902383546  0.09457963029915073  0.6761893643906902  1.0000
  O   O180      1.0  0.7008218319805664  0.4054208402019356  0.8238106173226888  1.0000
  O   O181      1.0  0.942166249396127  0.3607973486324251  0.9087851703927299  1.0000
  O   O182      1.0  0.9421666141011854  0.13920220714027964  0.5912154194540264  1.0000
  O   O183      1.0  0.19216704639151783  0.38920267396196023  0.6587849991280584  1.0000
  O   O184      1.0  0.19216722519989035  0.11079774139986374  0.8412153243464627  1.0000
  O   O185      1.0  0.24378252475397538  0.4047088481470496  0.9909133466163881  1.0000
  O   O186      1.0  0.24378240104462412  0.09529100445400827  0.5090866622469079  1.0000
  O   O187      1.0  0.4937825364060775  0.34529177441772757  0.7409134210585083  1.0000
  O   O188      1.0  0.4937804827574401  0.15470875458742814  0.759086640031654  1.0000
  O   O189      1.0  0.7931024404473139  0.040193696195849074  0.9657332970141588  1.0000
  O   O190      1.0  0.7931013542946361  0.45980562737779557  0.5342666527102082  1.0000
  O   O191      1.0  0.5431016800729065  0.20980618002540347  0.7157334673058714  1.0000
  O   O192      1.0  0.5430998736491617  0.2901935855986825  0.7842668406326355  1.0000
  O   O193      1.0  0.04219526980619664  0.23036014609155828  0.886137613690069  1.0000
  O   O194      1.0  0.04219601279795819  0.2696393313323817  0.613862420328741  1.0000
  O   O195      1.0  0.7921947861671724  0.019639108692299394  0.6361377670132946  1.0000
  O   O196      1.0  0.79219561140981  0.48036031733231793  0.8638624752638906  1.0000
  O   O197      1.0  0.003720189500948717  0.29373037373801847  0.9496907820316745  1.0000
  O   O198      1.0  0.00372255502954335  0.20627003076949804  0.5503095851654093  1.0000
  O   O199      1.0  0.25372262787043065  0.45627042078991575  0.6996904561107931  1.0000
  O   O200      1.0  0.25372284618211427  0.043730131784980746  0.8003096547127418  1.0000
  O   O201      1.0  0.31746866173475535  0.31278642733135237  0.9206119892382488  1.0000
  O   O202      1.0  0.31746679874613204  0.1872136627497193  0.579387797390046  1.0000
  O   O203      1.0  0.5674662225140691  0.4372140531926975  0.6706123386894889  1.0000
  O   O204      1.0  0.5674656286258702  0.06278594446322035  0.8293878346374876  1.0000
  O   O205      1.0  0.3365476904018562  0.1721141206032348  0.9119164967969924  1.0000
  O   O206      1.0  0.33654770657385563  0.32788597967097555  0.588083462009611  1.0000
  O   O207      1.0  0.08654896256595808  0.07788593045512562  0.6619166529776538  1.0000
  O   O208      1.0  0.0865492687132853  0.42211409371633135  0.8380836113656752  1.0000
  O   O209      1.0  0.11682551216672668  0.06994885454569127  0.9926766132142761  1.0000
  O   O210      1.0  0.11682694096507526  0.4300511547278499  0.5073231226790268  1.0000
  O   O211      1.0  0.8668263434907167  0.18005084897764334  0.7426767514703106  1.0000
  O   O212      1.0  0.8668273209070019  0.3199489559804785  0.7573230827957439  1.0000
  O   O213      1.0  0.6791073947245039  0.47207633632460677  0.9345745779410387  1.0000
  O   O214      1.0  0.6791080096604235  0.02792371207917719  0.5654255552716908  1.0000
  O   O215      1.0  0.9291062704043794  0.27792427633148936  0.6845746952124225  1.0000
  O   O216      1.0  0.9291083574253067  0.22207666619930763  0.8154256855374247  1.0000
  O   O217      1.0  0.5640413621544438  0.049677843051221686  0.9025690245294096  1.0000
  O   O218      1.0  0.5640416880358662  0.4503222578592661  0.5974311747109309  1.0000
  O   O219      1.0  0.31404101780965704  0.2003220634605765  0.6525690206057918  1.0000
  O   O220      1.0  0.31404065168503653  0.2996784019723785  0.8474313728345977  1.0000
  O   O221      1.0  0.3770643442556848  0.19904624267386348  0.9817685471942869  1.0000
  O   O222      1.0  0.3770643423483274  0.30095390552793483  0.5182315483780513  1.0000
  O   O223      1.0  0.12706307208641876  0.05095396295260339  0.7317685121447379  1.0000
  O   O224      1.0  0.12706415657230183  0.4490460562449701  0.768231523476503  1.0000
  O   O225      1.0  0.40116750068833856  0.4352876071496069  0.8933004709747984  1.0000
  O   O226      1.0  0.40116751171019166  0.06471239473040523  0.6066996266036379  1.0000
  O   O227      1.0  0.6511677724283585  0.3147122941745777  0.6433006100577162  1.0000
  O   O228      1.0  0.6511676434844622  0.1852872476597983  0.8566995857611268  1.0000
  O   O229      1.0  0.0957597931554395  0.22946400709164308  0.4424896942239217  1.0000
  O   O230      1.0  0.09575768167490381  0.27053523803130824  0.05751009902977153  1.0000
  O   O231      1.0  0.845758819429161  0.02053606042206911  0.19249002960501588  1.0000
  O   O232      1.0  0.8457596105114965  0.47946382942923554  0.30751028109302686  1.0000
  O   O233      1.0  0.12434493281822326  0.26009932786198053  0.39656497299407184  1.0000
  O   O234      1.0  0.12434523281888595  0.23990084630426284  0.10343508182123608  1.0000
  O   O235      1.0  0.37434321611516297  0.48990101370314976  0.14656491604709648  1.0000
  O   O236      1.0  0.3743418888173468  0.010098999819976978  0.3534349914911297  1.0000
  O   O237      1.0  0.3903753858081625  0.4802728597547633  0.47703783124328025  1.0000
  O   O238      1.0  0.3903751213302011  0.019727138384119068  0.022962354395031567  1.0000
  O   O239      1.0  0.6403755552573689  0.26972671481839133  0.22703746310750744  1.0000
  O   O240      1.0  0.640374988136904  0.23027299062774365  0.2729622641968669  1.0000
  O   O241      1.0  0.662111695745067  0.42515647361071407  0.44160695746795203  1.0000
  O   O242      1.0  0.6621124061357201  0.07484337727643615  0.05839302223383969  1.0000
  O   O243      1.0  0.9121130449349667  0.3248432452361351  0.1916069851778281  1.0000
  O   O244      1.0  0.9121097991035706  0.175156893965779  0.3083929834337271  1.0000
  O   O245      1.0  0.5748242152469627  0.08572232556779356  0.39025562670396535  1.0000
  O   O246      1.0  0.5748263357919947  0.41427761136609637  0.10974439045461909  1.0000
  O   O247      1.0  0.3248260356561073  0.16427758046910318  0.14025554439156845  1.0000
  O   O248      1.0  0.32482337332300093  0.3357224576976751  0.3597444541671595  1.0000
  O   O249      1.0  0.390751189186254  0.17659907759231622  0.4757676850458886  1.0000
  O   O250      1.0  0.390753506811644  0.32340013272872004  0.024232159623303363  1.0000
  O   O251      1.0  0.1407525686264681  0.07340065766361387  0.22576772114491628  1.0000
  O   O252      1.0  0.14075246108953804  0.426599306266677  0.2742319974455029  1.0000
  O   O253      1.0  0.4508220634512101  0.1554199950480597  0.42618949845642523  1.0000
  O   O254      1.0  0.45082316358184954  0.3445793453964257  0.07381031426064684  1.0000
  O   O255      1.0  0.20082332486648963  0.09457920786998607  0.17618948891859773  1.0000
  O   O256      1.0  0.20082159290358736  0.40541997503908106  0.32381065713381924  1.0000
  O   O257      1.0  0.4421670353987588  0.36079720889483646  0.4087846697950404  1.0000
  O   O258      1.0  0.44216863344770607  0.13920313828297318  0.09121554062638151  1.0000
  O   O259      1.0  0.692166956779938  0.38920331963750376  0.1587846385083928  1.0000
  O   O260      1.0  0.6921688294611261  0.11079739868731951  0.34121510321628307  1.0000
  O   O261      1.0  0.7437826603966274  0.4047087427714734  0.49091358048227535  1.0000
  O   O262      1.0  0.7437818691437612  0.09529151276312929  0.009086517641667088  1.0000
  O   O263      1.0  0.99378034260508  0.3452912578110129  0.24091328715867927  1.0000
  O   O264      1.0  0.9937819680205369  0.15470870140624746  0.25908659966473885  1.0000
  O   O265      1.0  0.2931022472612779  0.04019374830683146  0.4657333171776497  1.0000
  O   O266      1.0  0.2931016045144357  0.4598056163666805  0.03426667491878029  1.0000
  O   O267      1.0  0.0431008242498986  0.2098061493865995  0.21573342411262203  1.0000
  O   O268      1.0  0.043101461210116106  0.2901937002716214  0.284266722151382  1.0000
  O   O269      1.0  0.5421949259864903  0.2303607840971308  0.3861378996522738  1.0000
  O   O270      1.0  0.542194324946503  0.2696398647560697  0.11386214240256695  1.0000
  O   O271      1.0  0.29219825833325047  0.019638870165511156  0.13613766946072714  1.0000
  O   O272      1.0  0.2921936772595478  0.48036091692208777  0.3638622449429793  1.0000
  O   O273      1.0  0.5037244557852388  0.29373012794647513  0.4496909158083859  1.0000
  O   O274      1.0  0.5037244432866781  0.20626971724598234  0.05030931643786971  1.0000
  O   O275      1.0  0.7537241490919987  0.4562701873717684  0.19969062297328438  1.0000
  O   O276      1.0  0.7537216130778222  0.04372992971494755  0.30030957381783935  1.0000
  O   O277      1.0  0.8174677190499605  0.31278619549430925  0.42061210660420956  1.0000
  O   O278      1.0  0.8174665542657703  0.18721374656767298  0.07938809452574894  1.0000
  O   O279      1.0  0.06746631875084405  0.43721383372674555  0.1706122043358385  1.0000
  O   O280      1.0  0.06746553842507125  0.06278673826698232  0.3293880004596209  1.0000
  O   O281      1.0  0.8365476929794522  0.1721142069891799  0.4119164280485247  1.0000
  O   O282      1.0  0.8365491305145186  0.3278865895807255  0.0880836836730151  1.0000
  O   O283      1.0  0.5865489357756566  0.07788607984038536  0.16191627667098832  1.0000
  O   O284      1.0  0.5865487637841622  0.422113988579587  0.3380833909130293  1.0000
  O   O285      1.0  0.6168248143862433  0.06994872085962993  0.4926769067968913  1.0000
  O   O286      1.0  0.6168276691859061  0.43005094356936596  0.007323213832321604  1.0000
  O   O287      1.0  0.36682574277274893  0.18005107556672584  0.24267696167455274  1.0000
  O   O288      1.0  0.36682605991661377  0.3199488122996864  0.2573231434785806  1.0000
  O   O289      1.0  0.17910743804968945  0.4720757851913792  0.43457450289048755  1.0000
  O   O290      1.0  0.17910762664073715  0.027924424065603658  0.06542547277873237  1.0000
  O   O291      1.0  0.42910724723051674  0.27792389594747924  0.18457435441835573  1.0000
  O   O292      1.0  0.42910711053332834  0.22207618910190763  0.3154254351902652  1.0000
  O   O293      1.0  0.06404078067615841  0.04967793754401288  0.402568969291307  1.0000
  O   O294      1.0  0.06404161554163453  0.45032227899325333  0.09743109825663947  1.0000
  O   O295      1.0  0.8140425406587581  0.2003219332996911  0.152568835416363  1.0000
  O   O296      1.0  0.8140405884335228  0.2996776585220041  0.34743097457142486  1.0000
  O   O297      1.0  0.8770637684225645  0.1990461207830163  0.4817685970363234  1.0000
  O   O298      1.0  0.8770638042980816  0.30095353158579435  0.01823152458425624  1.0000
  O   O299      1.0  0.6270636776920298  0.050953815873152446  0.23176839091203272  1.0000
  O   O300      1.0  0.6270633967696577  0.4490460199403095  0.2682314368402555  1.0000
  O   O301      1.0  0.9011672912408407  0.4352876147790357  0.3933003916224511  1.0000
  O   O302      1.0  0.9011664304180653  0.0647122483486165  0.10669946303902247  1.0000
  O   O303      1.0  0.15116872659537098  0.31471239982562754  0.1433003560522494  1.0000
  O   O304      1.0  0.15116671365219028  0.1852875093009498  0.3566995557434075  1.0000
