data_image0
_chemical_formula_structural       Zr4Si4O16Zr4Si4O16Zr4Si4O16Zr4Si4O16Zr4Si4O16Zr4Si4O16Zr4Si4O16Zr4Si4O16Zr4Si4O16Zr4Si4O16Zr4Si4O16Zr4Si4O16Zr4Si4O16Zr4Si4O16Zr4Si4O16Zr4Si4O16Zr4Si4O16Zr4Si4O16Zr4Si4O16Zr4Si4O16Zr4Si4O16Zr4Si4O16Zr4Si4O16Zr4Si4O16Zr4Si4O16Zr4Si4O16Zr4Si4O16Zr4Si4O16Zr4Si4O16Zr4Si4O16Zr4Si4O16Zr4Si4O16Zr4Si4O16Zr4Si4O16Zr4Si4O16Zr4Si4O16Zr4Si4O16Zr4Si4O16Zr4Si4O16Zr4Si4O16Zr4Si4O16Zr4Si4O16Zr4Si4O16Zr4Si4O16Zr4Si4O16Zr4Si4O16Zr4Si4O16Zr4Si4O16Zr4Si4O16Zr4Si4O16Zr4Si4O16Zr4Si4O16Zr4Si4O16Zr4Si4O16Zr4Si4O16Zr4Si4O16Zr4Si4O16Zr4Si4O16Zr4Si4O16Zr4Si4O16Zr4Si4O16Zr4Si4O16Zr4Si4O16Zr4Si4O16
_chemical_formula_sum              "Zr256 Si256 O1024"
_cell_length_a       26.821825865432796
_cell_length_b       26.821825301799475
_cell_length_c       24.168253058328403
_cell_angle_alpha    90.00000337268406
_cell_angle_beta     89.99999923099924
_cell_angle_gamma    90.00000415754721

_space_group_name_H-M_alt    "P 1"
_space_group_IT_number       1

loop_
  _space_group_symop_operation_xyz
  'x, y, z'

loop_
  _atom_site_type_symbol
  _atom_site_label
  _atom_site_symmetry_multiplicity
  _atom_site_fract_x
  _atom_site_fract_y
  _atom_site_fract_z
  _atom_site_occupancy
  Zr  Zr1       1.0  0.12500002262172738  0.12500003373264235  0.12499998598897614  1.0000
  Zr  Zr2       1.0  2.5385039061712516e-08  0.12499998826494414  0.1875000746833907  1.0000
  Zr  Zr3       1.0  0.9999999156246664  6.221473779919221e-08  0.9999999394131047  1.0000
  Zr  Zr4       1.0  0.12499993726196311  0.9999999731310484  0.06250005391148726  1.0000
  Si  Si1       1.0  0.12500002605228497  0.12500000498667863  1.4227899162016611e-09  1.0000
  Si  Si2       1.0  1.2825025016316224e-08  0.1250000084711991  0.06250001263678673  1.0000
  Si  Si3       1.0  1.754632622382416e-08  0.9999999558322336  0.12500005700001277  1.0000
  Si  Si4       1.0  0.12500002728597173  0.9999999837414587  0.1875000057216378  1.0000
  O   O1        1.0  0.07922647548392421  0.12499994420316363  0.20497862665236954  1.0000
  O   O2        1.0  0.9999999775133401  0.17077360654059523  0.017478693793618043  1.0000
  O   O3        1.0  0.1250000656475168  0.20422637475067726  0.14247869804172006  1.0000
  O   O4        1.0  0.1707736212664611  0.12499989386541942  0.20497872351202454  1.0000
  O   O5        1.0  0.12499994226320908  0.07922637661326512  0.04502125032368278  1.0000
  O   O6        1.0  0.045773585786631175  0.12499991919640933  0.10752133906967341  1.0000
  O   O7        1.0  0.20422650125922828  0.1250001029172126  0.1075214076207612  1.0000
  O   O8        1.0  8.097985373067079e-08  0.04577364285169643  0.17002124547011468  1.0000
  O   O9        1.0  0.20422641362853514  0.9999999689584944  0.07997876393666949  1.0000
  O   O10       1.0  0.12499982764507034  0.04577360868565652  0.14247879468017124  1.0000
  O   O11       1.0  0.9999998816945416  0.07922643024255346  0.017478671583042803  1.0000
  O   O12       1.0  0.04577354497892836  4.11885938762715e-08  0.07997869318885145  1.0000
  O   O13       1.0  0.9999999980907849  0.20422630031407393  0.1700212386912529  1.0000
  O   O14       1.0  0.17077360033051273  0.9999999148826462  0.2325213699380455  1.0000
  O   O15       1.0  0.07922638984119619  1.83959196245293e-07  0.23252124462073023  1.0000
  O   O16       1.0  0.12500015817644572  0.17077368721393635  0.04502118457027611  1.0000
  Zr  Zr5       1.0  0.12500002262172738  0.12500003373264235  0.37499998598897616  1.0000
  Zr  Zr6       1.0  2.5385039061712516e-08  0.12499998826494413  0.43750007468339075  1.0000
  Zr  Zr7       1.0  0.9999999156246664  6.221473779919221e-08  0.24999993941310475  1.0000
  Zr  Zr8       1.0  0.12499993726196311  0.9999999731310484  0.3125000539114873  1.0000
  Si  Si5       1.0  0.12500002605228497  0.12500000498667863  0.25000000142278994  1.0000
  Si  Si6       1.0  1.2825025016316224e-08  0.1250000084711991  0.31250001263678673  1.0000
  Si  Si7       1.0  1.754632622382416e-08  0.9999999558322336  0.37500005700001277  1.0000
  Si  Si8       1.0  0.12500002728597173  0.9999999837414587  0.43750000572163783  1.0000
  O   O17       1.0  0.0792264754839242  0.12499994420316361  0.45497862665236954  1.0000
  O   O18       1.0  0.9999999775133401  0.17077360654059523  0.26747869379361805  1.0000
  O   O19       1.0  0.1250000656475168  0.20422637475067723  0.39247869804172014  1.0000
  O   O20       1.0  0.1707736212664611  0.1249998938654194  0.4549787235120245  1.0000
  O   O21       1.0  0.12499994226320908  0.07922637661326512  0.29502125032368276  1.0000
  O   O22       1.0  0.04577358578663117  0.12499991919640933  0.35752133906967337  1.0000
  O   O23       1.0  0.20422650125922828  0.1250001029172126  0.3575214076207612  1.0000
  O   O24       1.0  8.097985373067079e-08  0.04577364285169644  0.4200212454701147  1.0000
  O   O25       1.0  0.20422641362853514  0.9999999689584944  0.3299787639366695  1.0000
  O   O26       1.0  0.12499982764507034  0.04577360868565652  0.3924787946801713  1.0000
  O   O27       1.0  0.9999998816945416  0.07922643024255345  0.2674786715830428  1.0000
  O   O28       1.0  0.04577354497892835  4.11885938762715e-08  0.3299786931888515  1.0000
  O   O29       1.0  0.9999999980907849  0.20422630031407393  0.42002123869125285  1.0000
  O   O30       1.0  0.17077360033051273  0.9999999148826462  0.48252136993804545  1.0000
  O   O31       1.0  0.07922638984119619  1.8395919624529302e-07  0.4825212446207302  1.0000
  O   O32       1.0  0.12500015817644572  0.17077368721393632  0.2950211845702761  1.0000
  Zr  Zr9       1.0  0.12500002262172738  0.12500003373264235  0.6249999859889762  1.0000
  Zr  Zr10      1.0  2.5385039061712516e-08  0.12499998826494416  0.6875000746833907  1.0000
  Zr  Zr11      1.0  0.9999999156246664  6.221473779919221e-08  0.4999999394131047  1.0000
  Zr  Zr12      1.0  0.12499993726196311  0.9999999731310484  0.5625000539114873  1.0000
  Si  Si9       1.0  0.12500002605228497  0.12500000498667863  0.5000000014227899  1.0000
  Si  Si10      1.0  1.2825025016316224e-08  0.12500000847119913  0.5625000126367867  1.0000
  Si  Si11      1.0  1.7546326223824157e-08  0.9999999558322336  0.6250000570000128  1.0000
  Si  Si12      1.0  0.12500002728597173  0.9999999837414587  0.6875000057216377  1.0000
  O   O33       1.0  0.0792264754839242  0.12499994420316364  0.7049786266523695  1.0000
  O   O34       1.0  0.9999999775133401  0.17077360654059523  0.517478693793618  1.0000
  O   O35       1.0  0.1250000656475168  0.20422637475067723  0.6424786980417201  1.0000
  O   O36       1.0  0.17077362126646103  0.1249998938654194  0.7049787235120245  1.0000
  O   O37       1.0  0.12499994226320908  0.07922637661326512  0.5450212503236828  1.0000
  O   O38       1.0  0.04577358578663117  0.12499991919640935  0.6075213390696734  1.0000
  O   O39       1.0  0.20422650125922828  0.1250001029172126  0.6075214076207611  1.0000
  O   O40       1.0  8.097985373067079e-08  0.045773642851696425  0.6700212454701147  1.0000
  O   O41       1.0  0.20422641362853514  0.9999999689584944  0.5799787639366695  1.0000
  O   O42       1.0  0.12499982764507034  0.04577360868565652  0.6424787946801712  1.0000
  O   O43       1.0  0.9999998816945416  0.07922643024255346  0.5174786715830428  1.0000
  O   O44       1.0  0.04577354497892835  4.11885938762715e-08  0.5799786931888514  1.0000
  O   O45       1.0  0.9999999980907849  0.2042263003140739  0.670021238691253  1.0000
  O   O46       1.0  0.17077360033051273  0.9999999148826462  0.7325213699380454  1.0000
  O   O47       1.0  0.07922638984119619  1.83959196245293e-07  0.7325212446207302  1.0000
  O   O48       1.0  0.12500015817644572  0.17077368721393632  0.545021184570276  1.0000
  Zr  Zr13      1.0  0.12500002262172738  0.12500003373264235  0.8749999859889761  1.0000
  Zr  Zr14      1.0  2.5385039061712516e-08  0.12499998826494414  0.9375000746833908  1.0000
  Zr  Zr15      1.0  0.9999999156246664  6.221473779919223e-08  0.7499999394131047  1.0000
  Zr  Zr16      1.0  0.12499993726196311  0.9999999731310484  0.8125000539114874  1.0000
  Si  Si13      1.0  0.12500002605228497  0.12500000498667863  0.75000000142279  1.0000
  Si  Si14      1.0  1.282502501631622e-08  0.1250000084711991  0.8125000126367867  1.0000
  Si  Si15      1.0  1.754632622382416e-08  0.9999999558322336  0.8750000570000128  1.0000
  Si  Si16      1.0  0.1250000272859717  0.9999999837414587  0.9375000057216379  1.0000
  O   O49       1.0  0.0792264754839242  0.12499994420316363  0.9549786266523697  1.0000
  O   O50       1.0  0.9999999775133401  0.17077360654059526  0.767478693793618  1.0000
  O   O51       1.0  0.1250000656475168  0.20422637475067726  0.89247869804172  1.0000
  O   O52       1.0  0.17077362126646103  0.12499989386541942  0.9549787235120246  1.0000
  O   O53       1.0  0.12499994226320908  0.07922637661326512  0.7950212503236828  1.0000
  O   O54       1.0  0.045773585786631175  0.12499991919640933  0.8575213390696734  1.0000
  O   O55       1.0  0.20422650125922828  0.1250001029172126  0.8575214076207612  1.0000
  O   O56       1.0  8.097985373067079e-08  0.04577364285169643  0.9200212454701145  1.0000
  O   O57       1.0  0.20422641362853514  0.9999999689584944  0.8299787639366695  1.0000
  O   O58       1.0  0.12499982764507034  0.04577360868565652  0.8924787946801713  1.0000
  O   O59       1.0  0.9999998816945416  0.07922643024255346  0.7674786715830427  1.0000
  O   O60       1.0  0.04577354497892836  4.118859387627149e-08  0.8299786931888514  1.0000
  O   O61       1.0  0.9999999980907849  0.20422630031407396  0.9200212386912529  1.0000
  O   O62       1.0  0.17077360033051273  0.9999999148826462  0.9825213699380455  1.0000
  O   O63       1.0  0.07922638984119619  1.83959196245293e-07  0.9825212446207303  1.0000
  O   O64       1.0  0.12500015817644572  0.17077368721393635  0.7950211845702762  1.0000
  Zr  Zr17      1.0  0.12500002262172738  0.3750000337326424  0.12499998598897614  1.0000
  Zr  Zr18      1.0  2.538503906171252e-08  0.3749999882649442  0.1875000746833907  1.0000
  Zr  Zr19      1.0  0.9999999156246664  0.2500000622147378  0.9999999394131047  1.0000
  Zr  Zr20      1.0  0.12499993726196311  0.24999997313104846  0.06250005391148726  1.0000
  Si  Si17      1.0  0.12500002605228497  0.3750000049866786  1.4227899162016624e-09  1.0000
  Si  Si18      1.0  1.2825025016316224e-08  0.37500000847119913  0.06250001263678673  1.0000
  Si  Si19      1.0  1.754632622382416e-08  0.24999995583223364  0.1250000570000128  1.0000
  Si  Si20      1.0  0.12500002728597173  0.24999998374145876  0.18750000572163783  1.0000
  O   O65       1.0  0.0792264754839242  0.3749999442031636  0.20497862665236954  1.0000
  O   O66       1.0  0.9999999775133401  0.42077360654059526  0.017478693793618043  1.0000
  O   O67       1.0  0.1250000656475168  0.45422637475067723  0.14247869804172006  1.0000
  O   O68       1.0  0.1707736212664611  0.3749998938654194  0.20497872351202454  1.0000
  O   O69       1.0  0.12499994226320908  0.32922637661326515  0.04502125032368279  1.0000
  O   O70       1.0  0.04577358578663117  0.37499991919640935  0.10752133906967341  1.0000
  O   O71       1.0  0.20422650125922828  0.37500010291721264  0.1075214076207612  1.0000
  O   O72       1.0  8.097985373067079e-08  0.2957736428516965  0.17002124547011468  1.0000
  O   O73       1.0  0.20422641362853514  0.24999996895849444  0.07997876393666949  1.0000
  O   O74       1.0  0.12499982764507034  0.2957736086856565  0.14247879468017124  1.0000
  O   O75       1.0  0.9999998816945416  0.3292264302425535  0.017478671583042803  1.0000
  O   O76       1.0  0.04577354497892835  0.25000004118859387  0.07997869318885145  1.0000
  O   O77       1.0  0.9999999980907849  0.45422630031407396  0.1700212386912529  1.0000
  O   O78       1.0  0.17077360033051273  0.24999991488264625  0.2325213699380455  1.0000
  O   O79       1.0  0.07922638984119619  0.25000018395919626  0.23252124462073023  1.0000
  O   O80       1.0  0.12500015817644572  0.4207736872139363  0.04502118457027611  1.0000
  Zr  Zr21      1.0  0.12500002262172738  0.3750000337326424  0.37499998598897616  1.0000
  Zr  Zr22      1.0  2.538503906171252e-08  0.3749999882649442  0.4375000746833907  1.0000
  Zr  Zr23      1.0  0.9999999156246664  0.2500000622147378  0.24999993941310475  1.0000
  Zr  Zr24      1.0  0.12499993726196311  0.24999997313104844  0.3125000539114873  1.0000
  Si  Si21      1.0  0.12500002605228497  0.3750000049866786  0.25000000142278994  1.0000
  Si  Si22      1.0  1.2825025016316224e-08  0.37500000847119913  0.31250001263678673  1.0000
  Si  Si23      1.0  1.754632622382416e-08  0.24999995583223364  0.3750000570000128  1.0000
  Si  Si24      1.0  0.12500002728597173  0.24999998374145876  0.4375000057216378  1.0000
  O   O81       1.0  0.07922647548392418  0.3749999442031636  0.45497862665236954  1.0000
  O   O82       1.0  0.9999999775133401  0.42077360654059526  0.26747869379361805  1.0000
  O   O83       1.0  0.1250000656475168  0.4542263747506773  0.39247869804172003  1.0000
  O   O84       1.0  0.1707736212664611  0.3749998938654194  0.4549787235120245  1.0000
  O   O85       1.0  0.12499994226320908  0.32922637661326515  0.2950212503236828  1.0000
  O   O86       1.0  0.04577358578663117  0.37499991919640935  0.3575213390696734  1.0000
  O   O87       1.0  0.20422650125922828  0.37500010291721264  0.3575214076207612  1.0000
  O   O88       1.0  8.097985373067079e-08  0.2957736428516965  0.42002124547011466  1.0000
  O   O89       1.0  0.20422641362853514  0.2499999689584944  0.3299787639366695  1.0000
  O   O90       1.0  0.12499982764507034  0.29577360868565655  0.3924787946801712  1.0000
  O   O91       1.0  0.9999998816945416  0.3292264302425535  0.2674786715830428  1.0000
  O   O92       1.0  0.04577354497892835  0.25000004118859387  0.3299786931888514  1.0000
  O   O93       1.0  0.9999999980907849  0.45422630031407396  0.4200212386912529  1.0000
  O   O94       1.0  0.17077360033051273  0.24999991488264625  0.48252136993804545  1.0000
  O   O95       1.0  0.07922638984119619  0.2500001839591963  0.4825212446207302  1.0000
  O   O96       1.0  0.12500015817644572  0.4207736872139363  0.2950211845702761  1.0000
  Zr  Zr25      1.0  0.12500002262172738  0.37500003373264235  0.6249999859889761  1.0000
  Zr  Zr26      1.0  2.538503906171252e-08  0.3749999882649442  0.6875000746833907  1.0000
  Zr  Zr27      1.0  0.9999999156246664  0.2500000622147378  0.4999999394131046  1.0000
  Zr  Zr28      1.0  0.12499993726196311  0.24999997313104844  0.5625000539114872  1.0000
  Si  Si25      1.0  0.12500002605228497  0.3750000049866786  0.5000000014227899  1.0000
  Si  Si26      1.0  1.2825025016316224e-08  0.37500000847119913  0.5625000126367867  1.0000
  Si  Si27      1.0  1.7546326223824157e-08  0.2499999558322336  0.6250000570000127  1.0000
  Si  Si28      1.0  0.12500002728597173  0.24999998374145876  0.6875000057216377  1.0000
  O   O97       1.0  0.07922647548392418  0.37499994420316357  0.7049786266523694  1.0000
  O   O98       1.0  0.9999999775133401  0.42077360654059526  0.517478693793618  1.0000
  O   O99       1.0  0.1250000656475168  0.45422637475067723  0.64247869804172  1.0000
  O   O100      1.0  0.17077362126646103  0.3749998938654194  0.7049787235120244  1.0000
  O   O101      1.0  0.12499994226320908  0.32922637661326515  0.5450212503236828  1.0000
  O   O102      1.0  0.04577358578663117  0.37499991919640935  0.6075213390696734  1.0000
  O   O103      1.0  0.20422650125922828  0.37500010291721264  0.6075214076207611  1.0000
  O   O104      1.0  8.097985373067079e-08  0.29577364285169644  0.6700212454701147  1.0000
  O   O105      1.0  0.20422641362853514  0.24999996895849444  0.5799787639366695  1.0000
  O   O106      1.0  0.12499982764507034  0.2957736086856565  0.6424787946801712  1.0000
  O   O107      1.0  0.9999998816945416  0.32922643024255344  0.5174786715830427  1.0000
  O   O108      1.0  0.04577354497892835  0.25000004118859387  0.5799786931888514  1.0000
  O   O109      1.0  0.9999999980907849  0.45422630031407396  0.670021238691253  1.0000
  O   O110      1.0  0.17077360033051273  0.24999991488264622  0.7325213699380454  1.0000
  O   O111      1.0  0.07922638984119619  0.25000018395919626  0.7325212446207302  1.0000
  O   O112      1.0  0.12500015817644572  0.42077368721393626  0.545021184570276  1.0000
  Zr  Zr29      1.0  0.1250000226217274  0.37500003373264235  0.8749999859889761  1.0000
  Zr  Zr30      1.0  2.538503906171252e-08  0.37499998826494424  0.9375000746833908  1.0000
  Zr  Zr31      1.0  0.9999999156246664  0.25000006221473786  0.7499999394131047  1.0000
  Zr  Zr32      1.0  0.12499993726196312  0.24999997313104846  0.8125000539114872  1.0000
  Si  Si29      1.0  0.12500002605228497  0.3750000049866787  0.7500000014227899  1.0000
  Si  Si30      1.0  1.2825025016316226e-08  0.3750000084711992  0.8125000126367867  1.0000
  Si  Si31      1.0  1.754632622382416e-08  0.24999995583223364  0.8750000570000128  1.0000
  Si  Si32      1.0  0.12500002728597173  0.2499999837414588  0.9375000057216377  1.0000
  O   O113      1.0  0.0792264754839242  0.3749999442031636  0.9549786266523697  1.0000
  O   O114      1.0  0.9999999775133401  0.42077360654059526  0.767478693793618  1.0000
  O   O115      1.0  0.1250000656475168  0.45422637475067723  0.89247869804172  1.0000
  O   O116      1.0  0.17077362126646103  0.3749998938654195  0.9549787235120246  1.0000
  O   O117      1.0  0.1249999422632091  0.32922637661326515  0.7950212503236826  1.0000
  O   O118      1.0  0.04577358578663117  0.3749999191964094  0.8575213390696733  1.0000
  O   O119      1.0  0.20422650125922828  0.3750001029172126  0.8575214076207612  1.0000
  O   O120      1.0  8.09798537306708e-08  0.2957736428516965  0.9200212454701145  1.0000
  O   O121      1.0  0.20422641362853514  0.24999996895849447  0.8299787639366695  1.0000
  O   O122      1.0  0.12499982764507035  0.29577360868565655  0.8924787946801713  1.0000
  O   O123      1.0  0.9999998816945416  0.3292264302425535  0.7674786715830427  1.0000
  O   O124      1.0  0.04577354497892835  0.2500000411885939  0.8299786931888514  1.0000
  O   O125      1.0  0.9999999980907849  0.45422630031407396  0.9200212386912529  1.0000
  O   O126      1.0  0.17077360033051273  0.24999991488264625  0.9825213699380455  1.0000
  O   O127      1.0  0.0792263898411962  0.2500001839591963  0.9825212446207302  1.0000
  O   O128      1.0  0.12500015817644572  0.42077368721393643  0.7950211845702762  1.0000
  Zr  Zr33      1.0  0.12500002262172738  0.6250000337326423  0.12499998598897614  1.0000
  Zr  Zr34      1.0  2.5385039061712516e-08  0.6249999882649442  0.18750007468339075  1.0000
  Zr  Zr35      1.0  0.9999999156246664  0.5000000622147379  0.9999999394131047  1.0000
  Zr  Zr36      1.0  0.12499993726196311  0.49999997313104844  0.06250005391148726  1.0000
  Si  Si33      1.0  0.12500002605228494  0.6250000049866787  1.422789916201667e-09  1.0000
  Si  Si34      1.0  1.282502501631622e-08  0.6250000084711991  0.06250001263678673  1.0000
  Si  Si35      1.0  1.7546326223824157e-08  0.4999999558322336  0.1250000570000128  1.0000
  Si  Si36      1.0  0.12500002728597173  0.49999998374145876  0.18750000572163783  1.0000
  O   O129      1.0  0.0792264754839242  0.6249999442031636  0.20497862665236954  1.0000
  O   O130      1.0  0.9999999775133401  0.6707736065405951  0.01747869379361804  1.0000
  O   O131      1.0  0.1250000656475168  0.7042263747506773  0.1424786980417201  1.0000
  O   O132      1.0  0.17077362126646103  0.6249998938654194  0.20497872351202454  1.0000
  O   O133      1.0  0.12499994226320908  0.5792263766132651  0.04502125032368278  1.0000
  O   O134      1.0  0.045773585786631175  0.6249999191964094  0.10752133906967341  1.0000
  O   O135      1.0  0.20422650125922828  0.6250001029172128  0.1075214076207612  1.0000
  O   O136      1.0  8.097985373067079e-08  0.5457736428516965  0.17002124547011468  1.0000
  O   O137      1.0  0.20422641362853514  0.4999999689584944  0.07997876393666949  1.0000
  O   O138      1.0  0.12499982764507034  0.5457736086856566  0.14247879468017124  1.0000
  O   O139      1.0  0.9999998816945416  0.5792264302425535  0.0174786715830428  1.0000
  O   O140      1.0  0.04577354497892836  0.5000000411885939  0.07997869318885145  1.0000
  O   O141      1.0  0.9999999980907849  0.7042263003140741  0.1700212386912529  1.0000
  O   O142      1.0  0.17077360033051273  0.4999999148826463  0.2325213699380455  1.0000
  O   O143      1.0  0.07922638984119619  0.5000001839591962  0.23252124462073023  1.0000
  O   O144      1.0  0.12500015817644572  0.6707736872139363  0.045021184570276096  1.0000
  Zr  Zr37      1.0  0.12500002262172738  0.6250000337326423  0.37499998598897616  1.0000
  Zr  Zr38      1.0  2.538503906171251e-08  0.624999988264944  0.43750007468339075  1.0000
  Zr  Zr39      1.0  0.9999999156246664  0.5000000622147379  0.24999993941310475  1.0000
  Zr  Zr40      1.0  0.12499993726196312  0.49999997313104844  0.3125000539114873  1.0000
  Si  Si37      1.0  0.12500002605228497  0.6250000049866787  0.25000000142278994  1.0000
  Si  Si38      1.0  1.2825025016316226e-08  0.6250000084711992  0.31250001263678673  1.0000
  Si  Si39      1.0  1.754632622382416e-08  0.49999995583223367  0.37500005700001277  1.0000
  Si  Si40      1.0  0.12500002728597173  0.49999998374145876  0.43750000572163783  1.0000
  O   O145      1.0  0.0792264754839242  0.6249999442031636  0.45497862665236954  1.0000
  O   O146      1.0  0.9999999775133401  0.6707736065405955  0.26747869379361805  1.0000
  O   O147      1.0  0.1250000656475168  0.7042263747506773  0.39247869804172003  1.0000
  O   O148      1.0  0.17077362126646103  0.6249998938654193  0.4549787235120245  1.0000
  O   O149      1.0  0.1249999422632091  0.5792263766132651  0.29502125032368276  1.0000
  O   O150      1.0  0.04577358578663117  0.6249999191964094  0.35752133906967337  1.0000
  O   O151      1.0  0.20422650125922828  0.6250001029172126  0.3575214076207612  1.0000
  O   O152      1.0  8.097985373067079e-08  0.5457736428516965  0.42002124547011466  1.0000
  O   O153      1.0  0.20422641362853514  0.4999999689584944  0.3299787639366695  1.0000
  O   O154      1.0  0.12499982764507035  0.5457736086856565  0.3924787946801713  1.0000
  O   O155      1.0  0.9999998816945416  0.5792264302425535  0.26747867158304284  1.0000
  O   O156      1.0  0.04577354497892835  0.5000000411885939  0.3299786931888515  1.0000
  O   O157      1.0  0.9999999980907849  0.7042263003140738  0.4200212386912529  1.0000
  O   O158      1.0  0.17077360033051273  0.4999999148826463  0.48252136993804556  1.0000
  O   O159      1.0  0.0792263898411962  0.5000001839591962  0.4825212446207302  1.0000
  O   O160      1.0  0.12500015817644572  0.6707736872139364  0.2950211845702761  1.0000
  Zr  Zr41      1.0  0.12500002262172738  0.6250000337326426  0.6249999859889761  1.0000
  Zr  Zr42      1.0  2.5385039061712516e-08  0.6249999882649442  0.6875000746833907  1.0000
  Zr  Zr43      1.0  0.9999999156246664  0.5000000622147378  0.4999999394131047  1.0000
  Zr  Zr44      1.0  0.12499993726196312  0.49999997313104844  0.5625000539114873  1.0000
  Si  Si41      1.0  0.12500002605228497  0.6250000049866785  0.5000000014227899  1.0000
  Si  Si42      1.0  1.282502501631622e-08  0.6250000084711991  0.5625000126367867  1.0000
  Si  Si43      1.0  1.754632622382416e-08  0.49999995583223367  0.6250000570000128  1.0000
  Si  Si44      1.0  0.12500002728597173  0.49999998374145876  0.6875000057216378  1.0000
  O   O161      1.0  0.0792264754839242  0.6249999442031636  0.7049786266523695  1.0000
  O   O162      1.0  0.9999999775133401  0.6707736065405951  0.517478693793618  1.0000
  O   O163      1.0  0.1250000656475168  0.7042263747506773  0.6424786980417201  1.0000
  O   O164      1.0  0.170773621266461  0.6249998938654194  0.7049787235120245  1.0000
  O   O165      1.0  0.1249999422632091  0.5792263766132651  0.5450212503236828  1.0000
  O   O166      1.0  0.04577358578663117  0.6249999191964094  0.6075213390696733  1.0000
  O   O167      1.0  0.20422650125922828  0.6250001029172128  0.6075214076207611  1.0000
  O   O168      1.0  8.097985373067079e-08  0.5457736428516965  0.6700212454701145  1.0000
  O   O169      1.0  0.20422641362853514  0.4999999689584944  0.5799787639366695  1.0000
  O   O170      1.0  0.12499982764507035  0.5457736086856565  0.6424787946801712  1.0000
  O   O171      1.0  0.9999998816945416  0.5792264302425534  0.5174786715830428  1.0000
  O   O172      1.0  0.04577354497892835  0.5000000411885939  0.5799786931888514  1.0000
  O   O173      1.0  0.9999999980907849  0.7042263003140741  0.670021238691253  1.0000
  O   O174      1.0  0.17077360033051273  0.4999999148826463  0.7325213699380455  1.0000
  O   O175      1.0  0.0792263898411962  0.5000001839591962  0.7325212446207303  1.0000
  O   O176      1.0  0.12500015817644572  0.6707736872139363  0.545021184570276  1.0000
  Zr  Zr45      1.0  0.12500002262172738  0.6250000337326423  0.8749999859889761  1.0000
  Zr  Zr46      1.0  2.5385039061712516e-08  0.6249999882649442  0.9375000746833908  1.0000
  Zr  Zr47      1.0  0.9999999156246664  0.5000000622147378  0.7499999394131047  1.0000
  Zr  Zr48      1.0  0.12499993726196312  0.49999997313104844  0.8125000539114872  1.0000
  Si  Si45      1.0  0.12500002605228497  0.6250000049866787  0.7500000014227899  1.0000
  Si  Si46      1.0  1.2825025016316226e-08  0.6250000084711992  0.8125000126367867  1.0000
  Si  Si47      1.0  1.754632622382416e-08  0.49999995583223367  0.8750000570000126  1.0000
  Si  Si48      1.0  0.12500002728597173  0.49999998374145876  0.9375000057216377  1.0000
  O   O177      1.0  0.0792264754839242  0.6249999442031636  0.9549786266523697  1.0000
  O   O178      1.0  0.9999999775133401  0.6707736065405953  0.767478693793618  1.0000
  O   O179      1.0  0.1250000656475168  0.7042263747506773  0.89247869804172  1.0000
  O   O180      1.0  0.170773621266461  0.6249998938654194  0.9549787235120246  1.0000
  O   O181      1.0  0.1249999422632091  0.5792263766132651  0.7950212503236826  1.0000
  O   O182      1.0  0.045773585786631175  0.6249999191964093  0.8575213390696733  1.0000
  O   O183      1.0  0.20422650125922828  0.6250001029172126  0.8575214076207612  1.0000
  O   O184      1.0  8.09798537306708e-08  0.5457736428516966  0.9200212454701145  1.0000
  O   O185      1.0  0.20422641362853514  0.4999999689584944  0.8299787639366695  1.0000
  O   O186      1.0  0.12499982764507035  0.5457736086856565  0.8924787946801713  1.0000
  O   O187      1.0  0.9999998816945416  0.5792264302425535  0.7674786715830427  1.0000
  O   O188      1.0  0.04577354497892836  0.5000000411885939  0.8299786931888514  1.0000
  O   O189      1.0  0.9999999980907849  0.7042263003140738  0.9200212386912529  1.0000
  O   O190      1.0  0.17077360033051273  0.4999999148826463  0.9825213699380454  1.0000
  O   O191      1.0  0.0792263898411962  0.5000001839591962  0.9825212446207302  1.0000
  O   O192      1.0  0.12500015817644572  0.6707736872139364  0.7950211845702762  1.0000
  Zr  Zr49      1.0  0.12500002262172738  0.8750000337326422  0.12499998598897613  1.0000
  Zr  Zr50      1.0  2.538503906171252e-08  0.8749999882649443  0.18750007468339075  1.0000
  Zr  Zr51      1.0  0.9999999156246664  0.7500000622147378  0.9999999394131047  1.0000
  Zr  Zr52      1.0  0.12499993726196312  0.7499999731310484  0.06250005391148726  1.0000
  Si  Si49      1.0  0.12500002605228497  0.8750000049866785  1.4227899162016624e-09  1.0000
  Si  Si50      1.0  1.2825025016316226e-08  0.8750000084711992  0.06250001263678673  1.0000
  Si  Si51      1.0  1.754632622382416e-08  0.7499999558322337  0.12500005700001277  1.0000
  Si  Si52      1.0  0.12500002728597173  0.7499999837414587  0.18750000572163783  1.0000
  O   O193      1.0  0.07922647548392421  0.8749999442031638  0.20497862665236954  1.0000
  O   O194      1.0  0.9999999775133401  0.9207736065405953  0.017478693793618043  1.0000
  O   O195      1.0  0.1250000656475168  0.9542263747506772  0.14247869804172006  1.0000
  O   O196      1.0  0.17077362126646103  0.8749998938654194  0.20497872351202454  1.0000
  O   O197      1.0  0.1249999422632091  0.8292263766132651  0.04502125032368278  1.0000
  O   O198      1.0  0.04577358578663117  0.8749999191964094  0.1075213390696734  1.0000
  O   O199      1.0  0.20422650125922823  0.8750001029172128  0.10752140762076119  1.0000
  O   O200      1.0  8.097985373067079e-08  0.7957736428516965  0.17002124547011468  1.0000
  O   O201      1.0  0.20422641362853514  0.7499999689584945  0.07997876393666949  1.0000
  O   O202      1.0  0.12499982764507035  0.7957736086856566  0.14247879468017124  1.0000
  O   O203      1.0  0.9999998816945416  0.8292264302425535  0.017478671583042803  1.0000
  O   O204      1.0  0.04577354497892835  0.750000041188594  0.07997869318885145  1.0000
  O   O205      1.0  0.9999999980907849  0.9542263003140738  0.1700212386912529  1.0000
  O   O206      1.0  0.1707736003305127  0.7499999148826462  0.2325213699380455  1.0000
  O   O207      1.0  0.0792263898411962  0.7500001839591963  0.23252124462073023  1.0000
  O   O208      1.0  0.12500015817644572  0.9207736872139364  0.04502118457027611  1.0000
  Zr  Zr53      1.0  0.12500002262172738  0.8750000337326423  0.3749999859889761  1.0000
  Zr  Zr54      1.0  2.538503906171252e-08  0.8749999882649442  0.43750007468339075  1.0000
  Zr  Zr55      1.0  0.9999999156246664  0.7500000622147378  0.24999993941310475  1.0000
  Zr  Zr56      1.0  0.12499993726196312  0.7499999731310485  0.3125000539114873  1.0000
  Si  Si53      1.0  0.12500002605228497  0.8750000049866788  0.25000000142278994  1.0000
  Si  Si54      1.0  1.2825025016316226e-08  0.8750000084711992  0.31250001263678673  1.0000
  Si  Si55      1.0  1.7546326223824157e-08  0.7499999558322336  0.3750000570000128  1.0000
  Si  Si56      1.0  0.12500002728597173  0.7499999837414587  0.43750000572163783  1.0000
  O   O209      1.0  0.0792264754839242  0.8749999442031635  0.4549786266523696  1.0000
  O   O210      1.0  0.9999999775133401  0.9207736065405953  0.26747869379361805  1.0000
  O   O211      1.0  0.1250000656475168  0.9542263747506773  0.39247869804172003  1.0000
  O   O212      1.0  0.17077362126646103  0.8749998938654194  0.45497872351202456  1.0000
  O   O213      1.0  0.1249999422632091  0.8292263766132651  0.2950212503236828  1.0000
  O   O214      1.0  0.04577358578663116  0.8749999191964094  0.35752133906967337  1.0000
  O   O215      1.0  0.20422650125922823  0.8750001029172126  0.3575214076207612  1.0000
  O   O216      1.0  8.097985373067079e-08  0.7957736428516964  0.42002124547011466  1.0000
  O   O217      1.0  0.20422641362853514  0.7499999689584943  0.3299787639366695  1.0000
  O   O218      1.0  0.12499982764507035  0.7957736086856565  0.3924787946801712  1.0000
  O   O219      1.0  0.9999998816945416  0.8292264302425535  0.26747867158304284  1.0000
  O   O220      1.0  0.04577354497892834  0.7500000411885939  0.3299786931888515  1.0000
  O   O221      1.0  0.9999999980907849  0.9542263003140741  0.4200212386912529  1.0000
  O   O222      1.0  0.1707736003305127  0.7499999148826462  0.48252136993804545  1.0000
  O   O223      1.0  0.0792263898411962  0.7500001839591963  0.48252124462073026  1.0000
  O   O224      1.0  0.12500015817644572  0.9207736872139364  0.2950211845702761  1.0000
  Zr  Zr57      1.0  0.12500002262172738  0.8750000337326423  0.624999985988976  1.0000
  Zr  Zr58      1.0  2.5385039061712516e-08  0.8749999882649442  0.6875000746833907  1.0000
  Zr  Zr59      1.0  0.9999999156246664  0.7500000622147378  0.4999999394131047  1.0000
  Zr  Zr60      1.0  0.12499993726196312  0.7499999731310485  0.5625000539114873  1.0000
  Si  Si57      1.0  0.12500002605228497  0.8750000049866785  0.5000000014227899  1.0000
  Si  Si58      1.0  1.2825025016316226e-08  0.8750000084711992  0.5625000126367867  1.0000
  Si  Si59      1.0  1.7546326223824153e-08  0.7499999558322336  0.6250000570000128  1.0000
  Si  Si60      1.0  0.12500002728597173  0.7499999837414587  0.6875000057216378  1.0000
  O   O225      1.0  0.0792264754839242  0.8749999442031638  0.7049786266523695  1.0000
  O   O226      1.0  0.9999999775133401  0.9207736065405953  0.517478693793618  1.0000
  O   O227      1.0  0.1250000656475168  0.9542263747506772  0.64247869804172  1.0000
  O   O228      1.0  0.170773621266461  0.8749998938654194  0.7049787235120245  1.0000
  O   O229      1.0  0.1249999422632091  0.8292263766132651  0.5450212503236828  1.0000
  O   O230      1.0  0.04577358578663117  0.8749999191964094  0.6075213390696733  1.0000
  O   O231      1.0  0.20422650125922823  0.8750001029172126  0.6075214076207611  1.0000
  O   O232      1.0  8.097985373067079e-08  0.7957736428516964  0.6700212454701145  1.0000
  O   O233      1.0  0.20422641362853514  0.7499999689584945  0.5799787639366695  1.0000
  O   O234      1.0  0.12499982764507035  0.7957736086856566  0.6424787946801712  1.0000
  O   O235      1.0  0.9999998816945416  0.8292264302425535  0.5174786715830427  1.0000
  O   O236      1.0  0.04577354497892835  0.750000041188594  0.5799786931888514  1.0000
  O   O237      1.0  0.9999999980907849  0.9542263003140738  0.6700212386912529  1.0000
  O   O238      1.0  0.1707736003305127  0.7499999148826462  0.7325213699380455  1.0000
  O   O239      1.0  0.0792263898411962  0.7500001839591963  0.7325212446207302  1.0000
  O   O240      1.0  0.12500015817644572  0.9207736872139364  0.545021184570276  1.0000
  Zr  Zr61      1.0  0.12500002262172738  0.8750000337326423  0.8749999859889761  1.0000
  Zr  Zr62      1.0  2.5385039061712522e-08  0.8749999882649443  0.9375000746833908  1.0000
  Zr  Zr63      1.0  0.9999999156246664  0.7500000622147378  0.7499999394131047  1.0000
  Zr  Zr64      1.0  0.12499993726196312  0.7499999731310484  0.8125000539114872  1.0000
  Si  Si61      1.0  0.12500002605228497  0.8750000049866786  0.7500000014227899  1.0000
  Si  Si62      1.0  1.2825025016316226e-08  0.8750000084711992  0.8125000126367866  1.0000
  Si  Si63      1.0  1.754632622382416e-08  0.7499999558322336  0.8750000570000126  1.0000
  Si  Si64      1.0  0.12500002728597173  0.7499999837414587  0.9375000057216377  1.0000
  O   O241      1.0  0.0792264754839242  0.8749999442031635  0.9549786266523694  1.0000
  O   O242      1.0  0.9999999775133401  0.9207736065405953  0.767478693793618  1.0000
  O   O243      1.0  0.1250000656475168  0.9542263747506773  0.89247869804172  1.0000
  O   O244      1.0  0.170773621266461  0.8749998938654194  0.9549787235120244  1.0000
  O   O245      1.0  0.1249999422632091  0.8292263766132651  0.7950212503236826  1.0000
  O   O246      1.0  0.04577358578663117  0.8749999191964094  0.8575213390696733  1.0000
  O   O247      1.0  0.20422650125922823  0.8750001029172126  0.8575214076207611  1.0000
  O   O248      1.0  8.09798537306708e-08  0.7957736428516964  0.9200212454701145  1.0000
  O   O249      1.0  0.20422641362853514  0.7499999689584943  0.8299787639366694  1.0000
  O   O250      1.0  0.12499982764507035  0.7957736086856565  0.8924787946801713  1.0000
  O   O251      1.0  0.9999998816945416  0.8292264302425535  0.7674786715830427  1.0000
  O   O252      1.0  0.04577354497892835  0.7500000411885939  0.8299786931888513  1.0000
  O   O253      1.0  0.9999999980907849  0.9542263003140741  0.9200212386912529  1.0000
  O   O254      1.0  0.1707736003305127  0.7499999148826462  0.9825213699380454  1.0000
  O   O255      1.0  0.0792263898411962  0.7500001839591963  0.9825212446207302  1.0000
  O   O256      1.0  0.12500015817644572  0.9207736872139364  0.7950211845702762  1.0000
  Zr  Zr65      1.0  0.3750000226217274  0.12500003373264235  0.12499998598897614  1.0000
  Zr  Zr66      1.0  0.25000002538503907  0.12499998826494414  0.1875000746833907  1.0000
  Zr  Zr67      1.0  0.24999991562466642  6.221473779919221e-08  0.9999999394131047  1.0000
  Zr  Zr68      1.0  0.3749999372619631  0.9999999731310484  0.06250005391148726  1.0000
  Si  Si65      1.0  0.37500002605228505  0.12500000498667863  1.4227899162016607e-09  1.0000
  Si  Si66      1.0  0.25000001282502504  0.1250000084711991  0.06250001263678673  1.0000
  Si  Si67      1.0  0.2500000175463263  0.9999999558322336  0.1250000570000128  1.0000
  Si  Si68      1.0  0.37500002728597176  0.9999999837414587  0.18750000572163783  1.0000
  O   O257      1.0  0.3292264754839242  0.12499994420316363  0.20497862665236954  1.0000
  O   O258      1.0  0.24999997751334013  0.1707736065405952  0.017478693793618043  1.0000
  O   O259      1.0  0.37500006564751687  0.20422637475067723  0.1424786980417201  1.0000
  O   O260      1.0  0.4207736212664611  0.12499989386541942  0.20497872351202454  1.0000
  O   O261      1.0  0.37499994226320915  0.07922637661326515  0.04502125032368278  1.0000
  O   O262      1.0  0.29577358578663115  0.12499991919640933  0.10752133906967341  1.0000
  O   O263      1.0  0.4542265012592283  0.1250001029172126  0.1075214076207612  1.0000
  O   O264      1.0  0.25000008097985377  0.04577364285169643  0.17002124547011468  1.0000
  O   O265      1.0  0.4542264136285352  0.9999999689584944  0.07997876393666949  1.0000
  O   O266      1.0  0.37499982764507045  0.045773608685656525  0.14247879468017124  1.0000
  O   O267      1.0  0.24999988169454157  0.07922643024255346  0.017478671583042803  1.0000
  O   O268      1.0  0.2957735449789284  4.11885938762715e-08  0.07997869318885145  1.0000
  O   O269      1.0  0.24999999809078485  0.2042263003140739  0.1700212386912529  1.0000
  O   O270      1.0  0.42077360033051275  0.9999999148826462  0.2325213699380455  1.0000
  O   O271      1.0  0.32922638984119623  1.83959196245293e-07  0.23252124462073023  1.0000
  O   O272      1.0  0.3750001581764458  0.17077368721393632  0.045021184570276096  1.0000
  Zr  Zr69      1.0  0.37500002262172744  0.12500003373264235  0.37499998598897616  1.0000
  Zr  Zr70      1.0  0.25000002538503907  0.12499998826494414  0.43750007468339075  1.0000
  Zr  Zr71      1.0  0.24999991562466642  6.221473779919221e-08  0.24999993941310475  1.0000
  Zr  Zr72      1.0  0.3749999372619631  0.9999999731310484  0.3125000539114873  1.0000
  Si  Si69      1.0  0.37500002605228505  0.12500000498667863  0.25000000142278994  1.0000
  Si  Si70      1.0  0.25000001282502504  0.1250000084711991  0.31250001263678673  1.0000
  Si  Si71      1.0  0.2500000175463262  0.9999999558322336  0.37500005700001277  1.0000
  Si  Si72      1.0  0.37500002728597176  0.9999999837414587  0.43750000572163783  1.0000
  O   O273      1.0  0.3292264754839242  0.12499994420316363  0.45497862665236954  1.0000
  O   O274      1.0  0.2499999775133401  0.17077360654059526  0.26747869379361805  1.0000
  O   O275      1.0  0.37500006564751676  0.20422637475067726  0.39247869804172014  1.0000
  O   O276      1.0  0.4207736212664611  0.1249998938654194  0.4549787235120245  1.0000
  O   O277      1.0  0.37499994226320915  0.07922637661326512  0.29502125032368276  1.0000
  O   O278      1.0  0.29577358578663115  0.12499991919640933  0.35752133906967337  1.0000
  O   O279      1.0  0.4542265012592282  0.1250001029172126  0.3575214076207612  1.0000
  O   O280      1.0  0.25000008097985377  0.04577364285169643  0.4200212454701147  1.0000
  O   O281      1.0  0.4542264136285352  0.9999999689584944  0.3299787639366695  1.0000
  O   O282      1.0  0.3749998276450704  0.04577360868565651  0.3924787946801713  1.0000
  O   O283      1.0  0.24999988169454157  0.07922643024255345  0.2674786715830428  1.0000
  O   O284      1.0  0.2957735449789284  4.11885938762715e-08  0.3299786931888515  1.0000
  O   O285      1.0  0.24999999809078485  0.20422630031407393  0.42002123869125285  1.0000
  O   O286      1.0  0.4207736003305127  0.9999999148826462  0.48252136993804545  1.0000
  O   O287      1.0  0.32922638984119623  1.83959196245293e-07  0.4825212446207302  1.0000
  O   O288      1.0  0.3750001581764458  0.17077368721393635  0.2950211845702761  1.0000
  Zr  Zr73      1.0  0.3750000226217274  0.12500003373264235  0.6249999859889762  1.0000
  Zr  Zr74      1.0  0.25000002538503907  0.12499998826494416  0.6875000746833907  1.0000
  Zr  Zr75      1.0  0.24999991562466642  6.221473779919221e-08  0.4999999394131047  1.0000
  Zr  Zr76      1.0  0.3749999372619631  0.9999999731310484  0.5625000539114873  1.0000
  Si  Si73      1.0  0.37500002605228505  0.12500000498667865  0.5000000014227899  1.0000
  Si  Si74      1.0  0.25000001282502504  0.12500000847119913  0.5625000126367867  1.0000
  Si  Si75      1.0  0.2500000175463262  0.9999999558322336  0.6250000570000128  1.0000
  Si  Si76      1.0  0.37500002728597176  0.9999999837414587  0.6875000057216377  1.0000
  O   O289      1.0  0.3292264754839242  0.12499994420316364  0.7049786266523695  1.0000
  O   O290      1.0  0.2499999775133401  0.17077360654059526  0.517478693793618  1.0000
  O   O291      1.0  0.37500006564751687  0.20422637475067723  0.6424786980417201  1.0000
  O   O292      1.0  0.4207736212664611  0.1249998938654194  0.7049787235120245  1.0000
  O   O293      1.0  0.37499994226320915  0.07922637661326512  0.5450212503236828  1.0000
  O   O294      1.0  0.29577358578663115  0.12499991919640935  0.6075213390696734  1.0000
  O   O295      1.0  0.4542265012592283  0.12500010291721264  0.6075214076207611  1.0000
  O   O296      1.0  0.25000008097985377  0.04577364285169643  0.6700212454701147  1.0000
  O   O297      1.0  0.4542264136285352  0.9999999689584944  0.5799787639366695  1.0000
  O   O298      1.0  0.3749998276450704  0.04577360868565652  0.6424787946801712  1.0000
  O   O299      1.0  0.24999988169454154  0.07922643024255346  0.5174786715830428  1.0000
  O   O300      1.0  0.2957735449789284  4.11885938762715e-08  0.5799786931888514  1.0000
  O   O301      1.0  0.24999999809078485  0.20422630031407393  0.6700212386912529  1.0000
  O   O302      1.0  0.42077360033051275  0.9999999148826462  0.7325213699380455  1.0000
  O   O303      1.0  0.32922638984119623  1.8395919624529302e-07  0.7325212446207302  1.0000
  O   O304      1.0  0.3750001581764458  0.17077368721393632  0.545021184570276  1.0000
  Zr  Zr77      1.0  0.37500002262172744  0.12500003373264235  0.8749999859889761  1.0000
  Zr  Zr78      1.0  0.25000002538503907  0.12499998826494414  0.9375000746833908  1.0000
  Zr  Zr79      1.0  0.24999991562466642  6.221473779919223e-08  0.7499999394131047  1.0000
  Zr  Zr80      1.0  0.3749999372619631  0.9999999731310484  0.8125000539114874  1.0000
  Si  Si77      1.0  0.37500002605228505  0.12500000498667863  0.75000000142279  1.0000
  Si  Si78      1.0  0.25000001282502504  0.1250000084711991  0.8125000126367867  1.0000
  Si  Si79      1.0  0.2500000175463262  0.9999999558322336  0.8750000570000128  1.0000
  Si  Si80      1.0  0.37500002728597176  0.9999999837414587  0.9375000057216379  1.0000
  O   O305      1.0  0.3292264754839242  0.12499994420316363  0.9549786266523697  1.0000
  O   O306      1.0  0.2499999775133401  0.17077360654059523  0.767478693793618  1.0000
  O   O307      1.0  0.37500006564751676  0.20422637475067723  0.8924786980417201  1.0000
  O   O308      1.0  0.4207736212664611  0.12499989386541942  0.9549787235120246  1.0000
  O   O309      1.0  0.3749999422632091  0.07922637661326512  0.7950212503236828  1.0000
  O   O310      1.0  0.29577358578663115  0.12499991919640933  0.8575213390696734  1.0000
  O   O311      1.0  0.4542265012592282  0.1250001029172126  0.8575214076207612  1.0000
  O   O312      1.0  0.25000008097985377  0.04577364285169643  0.9200212454701148  1.0000
  O   O313      1.0  0.4542264136285352  0.9999999689584944  0.8299787639366695  1.0000
  O   O314      1.0  0.3749998276450703  0.045773608685656525  0.8924787946801713  1.0000
  O   O315      1.0  0.24999988169454154  0.07922643024255346  0.7674786715830427  1.0000
  O   O316      1.0  0.2957735449789284  4.1188593876271504e-08  0.8299786931888514  1.0000
  O   O317      1.0  0.24999999809078485  0.20422630031407393  0.920021238691253  1.0000
  O   O318      1.0  0.4207736003305127  0.9999999148826462  0.9825213699380455  1.0000
  O   O319      1.0  0.32922638984119623  1.8395919624529302e-07  0.9825212446207303  1.0000
  O   O320      1.0  0.3750001581764457  0.17077368721393632  0.7950211845702762  1.0000
  Zr  Zr81      1.0  0.3750000226217274  0.3750000337326424  0.12499998598897614  1.0000
  Zr  Zr82      1.0  0.25000002538503907  0.3749999882649442  0.18750007468339075  1.0000
  Zr  Zr83      1.0  0.24999991562466642  0.2500000622147378  0.9999999394131047  1.0000
  Zr  Zr84      1.0  0.3749999372619631  0.24999997313104844  0.06250005391148726  1.0000
  Si  Si81      1.0  0.37500002605228505  0.3750000049866787  1.4227899162016624e-09  1.0000
  Si  Si82      1.0  0.25000001282502504  0.37500000847119913  0.06250001263678673  1.0000
  Si  Si83      1.0  0.2500000175463263  0.24999995583223364  0.1250000570000128  1.0000
  Si  Si84      1.0  0.37500002728597176  0.24999998374145876  0.18750000572163783  1.0000
  O   O321      1.0  0.3292264754839242  0.3749999442031637  0.20497862665236954  1.0000
  O   O322      1.0  0.24999997751334013  0.4207736065405952  0.01747869379361804  1.0000
  O   O323      1.0  0.37500006564751687  0.45422637475067723  0.1424786980417201  1.0000
  O   O324      1.0  0.4207736212664611  0.3749998938654194  0.20497872351202454  1.0000
  O   O325      1.0  0.37499994226320915  0.32922637661326515  0.04502125032368278  1.0000
  O   O326      1.0  0.29577358578663115  0.3749999191964094  0.10752133906967341  1.0000
  O   O327      1.0  0.4542265012592283  0.37500010291721264  0.1075214076207612  1.0000
  O   O328      1.0  0.25000008097985377  0.2957736428516965  0.17002124547011468  1.0000
  O   O329      1.0  0.4542264136285352  0.2499999689584944  0.07997876393666949  1.0000
  O   O330      1.0  0.37499982764507045  0.2957736086856565  0.14247879468017124  1.0000
  O   O331      1.0  0.24999988169454157  0.32922643024255344  0.0174786715830428  1.0000
  O   O332      1.0  0.2957735449789284  0.25000004118859387  0.07997869318885145  1.0000
  O   O333      1.0  0.24999999809078485  0.4542263003140739  0.1700212386912529  1.0000
  O   O334      1.0  0.42077360033051275  0.24999991488264625  0.2325213699380455  1.0000
  O   O335      1.0  0.32922638984119623  0.25000018395919626  0.23252124462073023  1.0000
  O   O336      1.0  0.3750001581764458  0.4207736872139363  0.04502118457027611  1.0000
  Zr  Zr85      1.0  0.37500002262172744  0.37500003373264235  0.37499998598897616  1.0000
  Zr  Zr86      1.0  0.25000002538503907  0.3749999882649442  0.4375000746833907  1.0000
  Zr  Zr87      1.0  0.24999991562466642  0.2500000622147378  0.24999993941310475  1.0000
  Zr  Zr88      1.0  0.3749999372619631  0.24999997313104844  0.3125000539114873  1.0000
  Si  Si85      1.0  0.37500002605228505  0.3750000049866787  0.25000000142278994  1.0000
  Si  Si86      1.0  0.25000001282502504  0.3750000084711991  0.31250001263678673  1.0000
  Si  Si87      1.0  0.2500000175463262  0.2499999558322336  0.3750000570000128  1.0000
  Si  Si88      1.0  0.37500002728597176  0.24999998374145874  0.4375000057216378  1.0000
  O   O337      1.0  0.3292264754839242  0.3749999442031636  0.45497862665236954  1.0000
  O   O338      1.0  0.2499999775133401  0.4207736065405952  0.26747869379361805  1.0000
  O   O339      1.0  0.37500006564751676  0.45422637475067723  0.39247869804172003  1.0000
  O   O340      1.0  0.4207736212664611  0.3749998938654194  0.4549787235120245  1.0000
  O   O341      1.0  0.37499994226320915  0.32922637661326515  0.2950212503236828  1.0000
  O   O342      1.0  0.29577358578663115  0.3749999191964094  0.3575213390696734  1.0000
  O   O343      1.0  0.4542265012592282  0.37500010291721264  0.3575214076207612  1.0000
  O   O344      1.0  0.25000008097985377  0.29577364285169644  0.42002124547011466  1.0000
  O   O345      1.0  0.4542264136285352  0.2499999689584944  0.3299787639366695  1.0000
  O   O346      1.0  0.3749998276450704  0.2957736086856565  0.3924787946801712  1.0000
  O   O347      1.0  0.24999988169454157  0.32922643024255344  0.26747867158304284  1.0000
  O   O348      1.0  0.2957735449789284  0.25000004118859387  0.3299786931888515  1.0000
  O   O349      1.0  0.24999999809078485  0.4542263003140739  0.4200212386912529  1.0000
  O   O350      1.0  0.4207736003305127  0.24999991488264622  0.48252136993804545  1.0000
  O   O351      1.0  0.32922638984119623  0.25000018395919626  0.4825212446207302  1.0000
  O   O352      1.0  0.3750001581764458  0.42077368721393626  0.2950211845702761  1.0000
  Zr  Zr89      1.0  0.3750000226217274  0.37500003373264235  0.6249999859889761  1.0000
  Zr  Zr90      1.0  0.25000002538503907  0.3749999882649442  0.6875000746833907  1.0000
  Zr  Zr91      1.0  0.24999991562466642  0.2500000622147378  0.4999999394131047  1.0000
  Zr  Zr92      1.0  0.3749999372619631  0.2499999731310484  0.5625000539114872  1.0000
  Si  Si89      1.0  0.37500002605228505  0.3750000049866787  0.5000000014227899  1.0000
  Si  Si90      1.0  0.25000001282502504  0.37500000847119913  0.5625000126367867  1.0000
  Si  Si91      1.0  0.2500000175463262  0.2499999558322336  0.6250000570000128  1.0000
  Si  Si92      1.0  0.37500002728597176  0.24999998374145876  0.6875000057216377  1.0000
  O   O353      1.0  0.3292264754839242  0.3749999442031636  0.7049786266523694  1.0000
  O   O354      1.0  0.2499999775133401  0.4207736065405952  0.517478693793618  1.0000
  O   O355      1.0  0.37500006564751687  0.45422637475067723  0.64247869804172  1.0000
  O   O356      1.0  0.4207736212664611  0.3749998938654194  0.7049787235120244  1.0000
  O   O357      1.0  0.37499994226320915  0.32922637661326515  0.5450212503236828  1.0000
  O   O358      1.0  0.29577358578663115  0.3749999191964094  0.6075213390696734  1.0000
  O   O359      1.0  0.4542265012592283  0.3750001029172126  0.6075214076207611  1.0000
  O   O360      1.0  0.25000008097985377  0.29577364285169644  0.6700212454701147  1.0000
  O   O361      1.0  0.4542264136285352  0.24999996895849444  0.5799787639366695  1.0000
  O   O362      1.0  0.3749998276450704  0.2957736086856565  0.6424787946801712  1.0000
  O   O363      1.0  0.24999988169454154  0.32922643024255344  0.5174786715830427  1.0000
  O   O364      1.0  0.2957735449789284  0.25000004118859387  0.5799786931888514  1.0000
  O   O365      1.0  0.24999999809078485  0.4542263003140739  0.6700212386912529  1.0000
  O   O366      1.0  0.42077360033051275  0.24999991488264622  0.7325213699380455  1.0000
  O   O367      1.0  0.32922638984119623  0.25000018395919626  0.7325212446207302  1.0000
  O   O368      1.0  0.3750001581764458  0.42077368721393626  0.545021184570276  1.0000
  Zr  Zr93      1.0  0.37500002262172744  0.37500003373264235  0.8749999859889761  1.0000
  Zr  Zr94      1.0  0.25000002538503907  0.3749999882649442  0.9375000746833908  1.0000
  Zr  Zr95      1.0  0.24999991562466642  0.2500000622147378  0.7499999394131047  1.0000
  Zr  Zr96      1.0  0.3749999372619631  0.24999997313104844  0.8125000539114874  1.0000
  Si  Si93      1.0  0.37500002605228505  0.3750000049866786  0.7500000014227899  1.0000
  Si  Si94      1.0  0.25000001282502504  0.37500000847119913  0.8125000126367867  1.0000
  Si  Si95      1.0  0.2500000175463262  0.24999995583223364  0.8750000570000128  1.0000
  Si  Si96      1.0  0.37500002728597176  0.2499999837414588  0.9375000057216379  1.0000
  O   O369      1.0  0.3292264754839242  0.3749999442031636  0.9549786266523697  1.0000
  O   O370      1.0  0.2499999775133401  0.42077360654059526  0.767478693793618  1.0000
  O   O371      1.0  0.37500006564751676  0.4542263747506773  0.8924786980417201  1.0000
  O   O372      1.0  0.4207736212664611  0.3749998938654195  0.9549787235120246  1.0000
  O   O373      1.0  0.3749999422632091  0.32922637661326515  0.7950212503236826  1.0000
  O   O374      1.0  0.29577358578663115  0.3749999191964094  0.8575213390696733  1.0000
  O   O375      1.0  0.4542265012592282  0.3750001029172126  0.8575214076207612  1.0000
  O   O376      1.0  0.25000008097985377  0.2957736428516965  0.9200212454701148  1.0000
  O   O377      1.0  0.4542264136285352  0.24999996895849444  0.8299787639366695  1.0000
  O   O378      1.0  0.3749998276450703  0.29577360868565655  0.8924787946801713  1.0000
  O   O379      1.0  0.24999988169454154  0.3292264302425535  0.7674786715830427  1.0000
  O   O380      1.0  0.2957735449789284  0.25000004118859387  0.8299786931888514  1.0000
  O   O381      1.0  0.24999999809078485  0.45422630031407396  0.9200212386912529  1.0000
  O   O382      1.0  0.4207736003305127  0.24999991488264625  0.9825213699380455  1.0000
  O   O383      1.0  0.32922638984119623  0.25000018395919626  0.9825212446207302  1.0000
  O   O384      1.0  0.3750001581764457  0.4207736872139363  0.7950211845702762  1.0000
  Zr  Zr97      1.0  0.3750000226217274  0.6250000337326422  0.12499998598897613  1.0000
  Zr  Zr98      1.0  0.25000002538503907  0.6249999882649442  0.18750007468339075  1.0000
  Zr  Zr99      1.0  0.24999991562466642  0.5000000622147379  0.9999999394131047  1.0000
  Zr  Zr100     1.0  0.3749999372619631  0.49999997313104844  0.06250005391148726  1.0000
  Si  Si97      1.0  0.37500002605228505  0.6250000049866785  1.4227899162016624e-09  1.0000
  Si  Si98      1.0  0.25000001282502504  0.6250000084711992  0.06250001263678673  1.0000
  Si  Si99      1.0  0.2500000175463262  0.4999999558322336  0.12500005700001277  1.0000
  Si  Si100     1.0  0.37500002728597176  0.49999998374145876  0.18750000572163783  1.0000
  O   O385      1.0  0.3292264754839242  0.6249999442031638  0.20497862665236954  1.0000
  O   O386      1.0  0.24999997751334013  0.6707736065405953  0.017478693793618043  1.0000
  O   O387      1.0  0.37500006564751687  0.7042263747506772  0.14247869804172006  1.0000
  O   O388      1.0  0.4207736212664611  0.6249998938654194  0.20497872351202454  1.0000
  O   O389      1.0  0.37499994226320915  0.5792263766132651  0.04502125032368279  1.0000
  O   O390      1.0  0.29577358578663115  0.6249999191964094  0.1075213390696734  1.0000
  O   O391      1.0  0.4542265012592283  0.6250001029172126  0.1075214076207612  1.0000
  O   O392      1.0  0.25000008097985377  0.5457736428516964  0.17002124547011468  1.0000
  O   O393      1.0  0.4542264136285352  0.4999999689584944  0.07997876393666949  1.0000
  O   O394      1.0  0.37499982764507045  0.5457736086856565  0.14247879468017124  1.0000
  O   O395      1.0  0.24999988169454157  0.5792264302425535  0.017478671583042803  1.0000
  O   O396      1.0  0.2957735449789284  0.5000000411885939  0.07997869318885145  1.0000
  O   O397      1.0  0.24999999809078485  0.7042263003140738  0.1700212386912529  1.0000
  O   O398      1.0  0.42077360033051275  0.4999999148826462  0.2325213699380455  1.0000
  O   O399      1.0  0.32922638984119623  0.5000001839591962  0.23252124462073023  1.0000
  O   O400      1.0  0.3750001581764458  0.6707736872139364  0.04502118457027611  1.0000
  Zr  Zr101     1.0  0.37500002262172744  0.6250000337326423  0.37499998598897616  1.0000
  Zr  Zr102     1.0  0.25000002538503907  0.6249999882649442  0.43750007468339075  1.0000
  Zr  Zr103     1.0  0.24999991562466642  0.5000000622147378  0.24999993941310475  1.0000
  Zr  Zr104     1.0  0.3749999372619631  0.49999997313104844  0.3125000539114873  1.0000
  Si  Si101     1.0  0.37500002605228505  0.6250000049866787  0.25000000142278994  1.0000
  Si  Si102     1.0  0.25000001282502504  0.6250000084711992  0.31250001263678673  1.0000
  Si  Si103     1.0  0.2500000175463262  0.49999995583223367  0.37500005700001277  1.0000
  Si  Si104     1.0  0.37500002728597176  0.49999998374145876  0.43750000572163783  1.0000
  O   O401      1.0  0.3292264754839242  0.6249999442031635  0.4549786266523696  1.0000
  O   O402      1.0  0.2499999775133401  0.6707736065405953  0.26747869379361805  1.0000
  O   O403      1.0  0.37500006564751676  0.7042263747506773  0.39247869804172003  1.0000
  O   O404      1.0  0.4207736212664611  0.6249998938654194  0.45497872351202456  1.0000
  O   O405      1.0  0.37499994226320915  0.5792263766132651  0.29502125032368276  1.0000
  O   O406      1.0  0.29577358578663115  0.6249999191964094  0.3575213390696734  1.0000
  O   O407      1.0  0.4542265012592282  0.6250001029172126  0.3575214076207613  1.0000
  O   O408      1.0  0.25000008097985377  0.5457736428516964  0.42002124547011466  1.0000
  O   O409      1.0  0.4542264136285352  0.4999999689584944  0.3299787639366695  1.0000
  O   O410      1.0  0.3749998276450704  0.5457736086856565  0.3924787946801713  1.0000
  O   O411      1.0  0.24999988169454157  0.5792264302425534  0.26747867158304284  1.0000
  O   O412      1.0  0.2957735449789284  0.5000000411885939  0.3299786931888515  1.0000
  O   O413      1.0  0.24999999809078485  0.7042263003140741  0.4200212386912529  1.0000
  O   O414      1.0  0.4207736003305127  0.4999999148826463  0.48252136993804556  1.0000
  O   O415      1.0  0.32922638984119623  0.5000001839591962  0.4825212446207302  1.0000
  O   O416      1.0  0.3750001581764458  0.6707736872139364  0.2950211845702761  1.0000
  Zr  Zr105     1.0  0.3750000226217274  0.6250000337326423  0.6249999859889761  1.0000
  Zr  Zr106     1.0  0.25000002538503907  0.6249999882649442  0.6875000746833907  1.0000
  Zr  Zr107     1.0  0.24999991562466642  0.5000000622147378  0.4999999394131047  1.0000
  Zr  Zr108     1.0  0.3749999372619631  0.49999997313104844  0.5625000539114873  1.0000
  Si  Si105     1.0  0.37500002605228505  0.6250000049866785  0.5000000014227899  1.0000
  Si  Si106     1.0  0.25000001282502504  0.6250000084711992  0.5625000126367867  1.0000
  Si  Si107     1.0  0.2500000175463262  0.49999995583223367  0.6250000570000128  1.0000
  Si  Si108     1.0  0.37500002728597176  0.4999999837414587  0.6875000057216378  1.0000
  O   O417      1.0  0.3292264754839242  0.6249999442031638  0.7049786266523695  1.0000
  O   O418      1.0  0.2499999775133401  0.6707736065405951  0.517478693793618  1.0000
  O   O419      1.0  0.37500006564751687  0.7042263747506772  0.6424786980417201  1.0000
  O   O420      1.0  0.4207736212664611  0.6249998938654194  0.7049787235120245  1.0000
  O   O421      1.0  0.37499994226320915  0.5792263766132651  0.5450212503236829  1.0000
  O   O422      1.0  0.29577358578663115  0.6249999191964093  0.6075213390696733  1.0000
  O   O423      1.0  0.4542265012592283  0.6250001029172126  0.6075214076207611  1.0000
  O   O424      1.0  0.25000008097985377  0.5457736428516964  0.6700212454701147  1.0000
  O   O425      1.0  0.4542264136285352  0.4999999689584944  0.5799787639366695  1.0000
  O   O426      1.0  0.3749998276450704  0.5457736086856565  0.6424787946801712  1.0000
  O   O427      1.0  0.24999988169454154  0.5792264302425534  0.5174786715830428  1.0000
  O   O428      1.0  0.2957735449789284  0.5000000411885939  0.5799786931888514  1.0000
  O   O429      1.0  0.24999999809078485  0.7042263003140738  0.670021238691253  1.0000
  O   O430      1.0  0.42077360033051275  0.4999999148826463  0.7325213699380455  1.0000
  O   O431      1.0  0.32922638984119623  0.5000001839591962  0.7325212446207303  1.0000
  O   O432      1.0  0.3750001581764458  0.6707736872139364  0.545021184570276  1.0000
  Zr  Zr109     1.0  0.37500002262172744  0.6250000337326423  0.8749999859889761  1.0000
  Zr  Zr110     1.0  0.25000002538503907  0.6249999882649443  0.9375000746833908  1.0000
  Zr  Zr111     1.0  0.24999991562466642  0.5000000622147378  0.7499999394131047  1.0000
  Zr  Zr112     1.0  0.3749999372619631  0.49999997313104844  0.8125000539114872  1.0000
  Si  Si109     1.0  0.37500002605228505  0.6250000049866787  0.7500000014227899  1.0000
  Si  Si110     1.0  0.25000001282502504  0.6250000084711992  0.8125000126367867  1.0000
  Si  Si111     1.0  0.2500000175463262  0.4999999558322336  0.8750000570000126  1.0000
  Si  Si112     1.0  0.37500002728597176  0.4999999837414587  0.9375000057216377  1.0000
  O   O433      1.0  0.3292264754839242  0.6249999442031635  0.9549786266523697  1.0000
  O   O434      1.0  0.2499999775133401  0.6707736065405953  0.767478693793618  1.0000
  O   O435      1.0  0.37500006564751676  0.7042263747506773  0.8924786980417201  1.0000
  O   O436      1.0  0.4207736212664611  0.6249998938654194  0.9549787235120246  1.0000
  O   O437      1.0  0.3749999422632091  0.5792263766132651  0.7950212503236826  1.0000
  O   O438      1.0  0.29577358578663115  0.6249999191964094  0.8575213390696733  1.0000
  O   O439      1.0  0.4542265012592282  0.6250001029172126  0.8575214076207612  1.0000
  O   O440      1.0  0.25000008097985377  0.5457736428516964  0.9200212454701148  1.0000
  O   O441      1.0  0.4542264136285352  0.4999999689584944  0.8299787639366695  1.0000
  O   O442      1.0  0.3749998276450703  0.5457736086856565  0.8924787946801713  1.0000
  O   O443      1.0  0.24999988169454154  0.5792264302425535  0.7674786715830427  1.0000
  O   O444      1.0  0.2957735449789284  0.5000000411885939  0.8299786931888514  1.0000
  O   O445      1.0  0.24999999809078485  0.7042263003140738  0.9200212386912529  1.0000
  O   O446      1.0  0.4207736003305127  0.4999999148826463  0.9825213699380454  1.0000
  O   O447      1.0  0.32922638984119623  0.5000001839591962  0.9825212446207302  1.0000
  O   O448      1.0  0.3750001581764457  0.6707736872139364  0.7950211845702762  1.0000
  Zr  Zr113     1.0  0.3750000226217274  0.8750000337326423  0.12499998598897613  1.0000
  Zr  Zr114     1.0  0.25000002538503907  0.8749999882649443  0.18750007468339075  1.0000
  Zr  Zr115     1.0  0.24999991562466642  0.7500000622147379  0.9999999394131047  1.0000
  Zr  Zr116     1.0  0.3749999372619631  0.7499999731310485  0.06250005391148726  1.0000
  Si  Si113     1.0  0.37500002605228505  0.8750000049866788  1.422789916201667e-09  1.0000
  Si  Si114     1.0  0.25000001282502504  0.8750000084711992  0.06250001263678673  1.0000
  Si  Si115     1.0  0.2500000175463262  0.7499999558322337  0.12500005700001277  1.0000
  Si  Si116     1.0  0.37500002728597176  0.7499999837414587  0.18750000572163783  1.0000
  O   O449      1.0  0.3292264754839242  0.8749999442031636  0.20497862665236954  1.0000
  O   O450      1.0  0.24999997751334013  0.9207736065405953  0.017478693793618043  1.0000
  O   O451      1.0  0.37500006564751687  0.9542263747506773  0.14247869804172006  1.0000
  O   O452      1.0  0.4207736212664611  0.8749998938654195  0.20497872351202454  1.0000
  O   O453      1.0  0.37499994226320915  0.8292263766132651  0.04502125032368278  1.0000
  O   O454      1.0  0.29577358578663115  0.8749999191964095  0.10752133906967341  1.0000
  O   O455      1.0  0.4542265012592283  0.8750001029172128  0.1075214076207612  1.0000
  O   O456      1.0  0.25000008097985377  0.7957736428516965  0.17002124547011468  1.0000
  O   O457      1.0  0.4542264136285352  0.7499999689584945  0.07997876393666949  1.0000
  O   O458      1.0  0.37499982764507045  0.7957736086856566  0.14247879468017124  1.0000
  O   O459      1.0  0.24999988169454157  0.8292264302425536  0.017478671583042803  1.0000
  O   O460      1.0  0.2957735449789284  0.750000041188594  0.07997869318885145  1.0000
  O   O461      1.0  0.24999999809078485  0.9542263003140741  0.1700212386912529  1.0000
  O   O462      1.0  0.42077360033051275  0.7499999148826462  0.2325213699380455  1.0000
  O   O463      1.0  0.32922638984119623  0.7500001839591963  0.23252124462073023  1.0000
  O   O464      1.0  0.3750001581764458  0.9207736872139364  0.045021184570276096  1.0000
  Zr  Zr117     1.0  0.37500002262172744  0.8750000337326423  0.37499998598897616  1.0000
  Zr  Zr118     1.0  0.25000002538503907  0.8749999882649442  0.43750007468339075  1.0000
  Zr  Zr119     1.0  0.24999991562466642  0.7500000622147378  0.24999993941310475  1.0000
  Zr  Zr120     1.0  0.3749999372619631  0.7499999731310485  0.3125000539114873  1.0000
  Si  Si117     1.0  0.37500002605228505  0.8750000049866786  0.25000000142278994  1.0000
  Si  Si118     1.0  0.25000001282502504  0.8750000084711993  0.31250001263678673  1.0000
  Si  Si119     1.0  0.2500000175463262  0.7499999558322336  0.3750000570000128  1.0000
  Si  Si120     1.0  0.37500002728597176  0.7499999837414588  0.43750000572163783  1.0000
  O   O465      1.0  0.3292264754839242  0.8749999442031638  0.4549786266523696  1.0000
  O   O466      1.0  0.2499999775133401  0.9207736065405955  0.26747869379361805  1.0000
  O   O467      1.0  0.37500006564751676  0.9542263747506773  0.39247869804172003  1.0000
  O   O468      1.0  0.4207736212664611  0.8749998938654194  0.45497872351202456  1.0000
  O   O469      1.0  0.37499994226320915  0.8292263766132654  0.2950212503236828  1.0000
  O   O470      1.0  0.29577358578663115  0.8749999191964093  0.35752133906967337  1.0000
  O   O471      1.0  0.4542265012592282  0.8750001029172126  0.3575214076207612  1.0000
  O   O472      1.0  0.25000008097985377  0.7957736428516964  0.42002124547011466  1.0000
  O   O473      1.0  0.4542264136285352  0.7499999689584945  0.3299787639366695  1.0000
  O   O474      1.0  0.3749998276450704  0.7957736086856566  0.3924787946801712  1.0000
  O   O475      1.0  0.24999988169454157  0.8292264302425535  0.26747867158304284  1.0000
  O   O476      1.0  0.2957735449789284  0.750000041188594  0.3299786931888515  1.0000
  O   O477      1.0  0.24999999809078485  0.9542263003140741  0.4200212386912529  1.0000
  O   O478      1.0  0.4207736003305127  0.7499999148826463  0.48252136993804545  1.0000
  O   O479      1.0  0.32922638984119623  0.7500001839591964  0.48252124462073026  1.0000
  O   O480      1.0  0.3750001581764458  0.9207736872139365  0.2950211845702761  1.0000
  Zr  Zr121     1.0  0.3750000226217274  0.8750000337326425  0.624999985988976  1.0000
  Zr  Zr122     1.0  0.25000002538503907  0.8749999882649443  0.6875000746833907  1.0000
  Zr  Zr123     1.0  0.24999991562466642  0.7500000622147379  0.4999999394131047  1.0000
  Zr  Zr124     1.0  0.3749999372619631  0.7499999731310485  0.5625000539114873  1.0000
  Si  Si121     1.0  0.37500002605228505  0.8750000049866786  0.5000000014227899  1.0000
  Si  Si122     1.0  0.25000001282502504  0.8750000084711992  0.5625000126367867  1.0000
  Si  Si123     1.0  0.2500000175463262  0.7499999558322337  0.6250000570000128  1.0000
  Si  Si124     1.0  0.37500002728597176  0.7499999837414587  0.6875000057216378  1.0000
  O   O481      1.0  0.3292264754839242  0.8749999442031636  0.7049786266523695  1.0000
  O   O482      1.0  0.2499999775133401  0.9207736065405953  0.517478693793618  1.0000
  O   O483      1.0  0.37500006564751687  0.9542263747506773  0.64247869804172  1.0000
  O   O484      1.0  0.4207736212664611  0.8749998938654194  0.7049787235120245  1.0000
  O   O485      1.0  0.37499994226320915  0.8292263766132651  0.5450212503236828  1.0000
  O   O486      1.0  0.29577358578663115  0.8749999191964095  0.6075213390696733  1.0000
  O   O487      1.0  0.4542265012592283  0.8750001029172128  0.6075214076207611  1.0000
  O   O488      1.0  0.25000008097985377  0.7957736428516965  0.6700212454701147  1.0000
  O   O489      1.0  0.4542264136285352  0.7499999689584945  0.5799787639366695  1.0000
  O   O490      1.0  0.3749998276450704  0.7957736086856566  0.6424787946801712  1.0000
  O   O491      1.0  0.24999988169454154  0.8292264302425536  0.5174786715830427  1.0000
  O   O492      1.0  0.2957735449789284  0.750000041188594  0.5799786931888514  1.0000
  O   O493      1.0  0.24999999809078485  0.9542263003140738  0.6700212386912529  1.0000
  O   O494      1.0  0.42077360033051275  0.7499999148826462  0.7325213699380455  1.0000
  O   O495      1.0  0.32922638984119623  0.7500001839591963  0.7325212446207302  1.0000
  O   O496      1.0  0.3750001581764458  0.9207736872139364  0.545021184570276  1.0000
  Zr  Zr125     1.0  0.37500002262172744  0.8750000337326423  0.8749999859889761  1.0000
  Zr  Zr126     1.0  0.25000002538503907  0.8749999882649443  0.9375000746833908  1.0000
  Zr  Zr127     1.0  0.24999991562466642  0.7500000622147378  0.7499999394131047  1.0000
  Zr  Zr128     1.0  0.3749999372619631  0.7499999731310485  0.8125000539114872  1.0000
  Si  Si125     1.0  0.37500002605228505  0.8750000049866786  0.7500000014227899  1.0000
  Si  Si126     1.0  0.25000001282502504  0.8750000084711993  0.8125000126367866  1.0000
  Si  Si127     1.0  0.2500000175463262  0.7499999558322336  0.8750000570000126  1.0000
  Si  Si128     1.0  0.37500002728597176  0.7499999837414588  0.9375000057216377  1.0000
  O   O497      1.0  0.3292264754839242  0.8749999442031638  0.9549786266523694  1.0000
  O   O498      1.0  0.2499999775133401  0.9207736065405953  0.767478693793618  1.0000
  O   O499      1.0  0.37500006564751676  0.9542263747506773  0.8924786980417201  1.0000
  O   O500      1.0  0.4207736212664611  0.8749998938654195  0.9549787235120244  1.0000
  O   O501      1.0  0.3749999422632091  0.8292263766132651  0.7950212503236826  1.0000
  O   O502      1.0  0.29577358578663115  0.8749999191964093  0.8575213390696733  1.0000
  O   O503      1.0  0.4542265012592282  0.8750001029172126  0.8575214076207611  1.0000
  O   O504      1.0  0.25000008097985377  0.7957736428516964  0.9200212454701148  1.0000
  O   O505      1.0  0.4542264136285352  0.7499999689584943  0.8299787639366694  1.0000
  O   O506      1.0  0.3749998276450703  0.7957736086856565  0.8924787946801713  1.0000
  O   O507      1.0  0.24999988169454154  0.8292264302425535  0.7674786715830427  1.0000
  O   O508      1.0  0.2957735449789284  0.7500000411885939  0.8299786931888513  1.0000
  O   O509      1.0  0.24999999809078485  0.9542263003140741  0.9200212386912529  1.0000
  O   O510      1.0  0.4207736003305127  0.7499999148826462  0.9825213699380454  1.0000
  O   O511      1.0  0.32922638984119623  0.7500001839591963  0.9825212446207302  1.0000
  O   O512      1.0  0.3750001581764457  0.9207736872139365  0.7950211845702762  1.0000
  Zr  Zr129     1.0  0.6250000226217274  0.12500003373264235  0.12499998598897613  1.0000
  Zr  Zr130     1.0  0.5000000253850391  0.12499998826494414  0.18750007468339075  1.0000
  Zr  Zr131     1.0  0.4999999156246665  6.221473779919223e-08  0.9999999394131047  1.0000
  Zr  Zr132     1.0  0.6249999372619631  0.9999999731310484  0.06250005391148726  1.0000
  Si  Si129     1.0  0.6250000260522849  0.12500000498667863  1.4227899162016611e-09  1.0000
  Si  Si130     1.0  0.5000000128250252  0.1250000084711991  0.06250001263678673  1.0000
  Si  Si131     1.0  0.5000000175463263  0.9999999558322336  0.12500005700001277  1.0000
  Si  Si132     1.0  0.6250000272859718  0.9999999837414587  0.18750000572163783  1.0000
  O   O513      1.0  0.5792264754839243  0.12499994420316363  0.20497862665236954  1.0000
  O   O514      1.0  0.4999999775133402  0.17077360654059523  0.01747869379361804  1.0000
  O   O515      1.0  0.6250000656475169  0.20422637475067726  0.14247869804172006  1.0000
  O   O516      1.0  0.6707736212664611  0.12499989386541942  0.20497872351202454  1.0000
  O   O517      1.0  0.6249999422632092  0.07922637661326515  0.04502125032368279  1.0000
  O   O518      1.0  0.5457735857866312  0.12499991919640933  0.1075213390696734  1.0000
  O   O519      1.0  0.7042265012592281  0.1250001029172126  0.1075214076207612  1.0000
  O   O520      1.0  0.5000000809798538  0.04577364285169643  0.17002124547011468  1.0000
  O   O521      1.0  0.7042264136285351  0.9999999689584944  0.07997876393666949  1.0000
  O   O522      1.0  0.6249998276450704  0.04577360868565652  0.14247879468017124  1.0000
  O   O523      1.0  0.4999998816945415  0.07922643024255346  0.0174786715830428  1.0000
  O   O524      1.0  0.5457735449789284  4.11885938762715e-08  0.07997869318885145  1.0000
  O   O525      1.0  0.49999999809078494  0.20422630031407393  0.1700212386912529  1.0000
  O   O526      1.0  0.6707736003305128  0.9999999148826462  0.2325213699380455  1.0000
  O   O527      1.0  0.5792263898411962  1.8395919624529302e-07  0.23252124462073023  1.0000
  O   O528      1.0  0.6250001581764458  0.17077368721393635  0.04502118457027611  1.0000
  Zr  Zr133     1.0  0.6250000226217274  0.12500003373264235  0.37499998598897616  1.0000
  Zr  Zr134     1.0  0.5000000253850391  0.12499998826494414  0.43750007468339075  1.0000
  Zr  Zr135     1.0  0.4999999156246665  6.221473779919223e-08  0.24999993941310475  1.0000
  Zr  Zr136     1.0  0.6249999372619631  0.9999999731310484  0.3125000539114873  1.0000
  Si  Si133     1.0  0.6250000260522849  0.12500000498667863  0.25000000142278994  1.0000
  Si  Si134     1.0  0.5000000128250252  0.12500000847119913  0.31250001263678673  1.0000
  Si  Si135     1.0  0.5000000175463263  0.9999999558322336  0.37500005700001277  1.0000
  Si  Si136     1.0  0.6250000272859719  0.9999999837414587  0.43750000572163783  1.0000
  O   O529      1.0  0.5792264754839243  0.12499994420316363  0.4549786266523696  1.0000
  O   O530      1.0  0.4999999775133402  0.17077360654059526  0.26747869379361805  1.0000
  O   O531      1.0  0.625000065647517  0.20422637475067723  0.39247869804172014  1.0000
  O   O532      1.0  0.670773621266461  0.1249998938654194  0.45497872351202456  1.0000
  O   O533      1.0  0.6249999422632091  0.07922637661326512  0.29502125032368276  1.0000
  O   O534      1.0  0.5457735857866312  0.12499991919640935  0.3575213390696734  1.0000
  O   O535      1.0  0.7042265012592284  0.1250001029172126  0.3575214076207613  1.0000
  O   O536      1.0  0.5000000809798538  0.04577364285169643  0.4200212454701147  1.0000
  O   O537      1.0  0.7042264136285351  0.9999999689584944  0.3299787639366695  1.0000
  O   O538      1.0  0.6249998276450704  0.04577360868565652  0.3924787946801713  1.0000
  O   O539      1.0  0.4999998816945415  0.07922643024255345  0.26747867158304284  1.0000
  O   O540      1.0  0.5457735449789284  4.11885938762715e-08  0.3299786931888515  1.0000
  O   O541      1.0  0.49999999809078494  0.20422630031407393  0.42002123869125285  1.0000
  O   O542      1.0  0.6707736003305128  0.9999999148826462  0.48252136993804545  1.0000
  O   O543      1.0  0.5792263898411962  1.83959196245293e-07  0.4825212446207302  1.0000
  O   O544      1.0  0.6250001581764457  0.17077368721393632  0.2950211845702761  1.0000
  Zr  Zr137     1.0  0.6250000226217274  0.12500003373264235  0.6249999859889762  1.0000
  Zr  Zr138     1.0  0.5000000253850391  0.12499998826494414  0.6875000746833907  1.0000
  Zr  Zr139     1.0  0.49999991562466645  6.221473779919221e-08  0.4999999394131047  1.0000
  Zr  Zr140     1.0  0.6249999372619631  0.9999999731310484  0.5625000539114873  1.0000
  Si  Si137     1.0  0.6250000260522849  0.12500000498667863  0.5000000014227899  1.0000
  Si  Si138     1.0  0.5000000128250252  0.1250000084711991  0.5625000126367867  1.0000
  Si  Si139     1.0  0.5000000175463263  0.9999999558322336  0.6250000570000128  1.0000
  Si  Si140     1.0  0.6250000272859718  0.9999999837414587  0.6875000057216377  1.0000
  O   O545      1.0  0.5792264754839243  0.12499994420316363  0.7049786266523695  1.0000
  O   O546      1.0  0.4999999775133402  0.17077360654059523  0.517478693793618  1.0000
  O   O547      1.0  0.6250000656475169  0.20422637475067723  0.6424786980417201  1.0000
  O   O548      1.0  0.6707736212664611  0.1249998938654194  0.7049787235120245  1.0000
  O   O549      1.0  0.6249999422632092  0.0792263766132651  0.5450212503236829  1.0000
  O   O550      1.0  0.5457735857866312  0.12499991919640933  0.6075213390696734  1.0000
  O   O551      1.0  0.7042265012592281  0.1250001029172126  0.6075214076207611  1.0000
  O   O552      1.0  0.5000000809798538  0.04577364285169643  0.6700212454701147  1.0000
  O   O553      1.0  0.7042264136285351  0.9999999689584944  0.5799787639366695  1.0000
  O   O554      1.0  0.6249998276450704  0.04577360868565652  0.6424787946801712  1.0000
  O   O555      1.0  0.4999998816945415  0.07922643024255346  0.5174786715830428  1.0000
  O   O556      1.0  0.5457735449789284  4.11885938762715e-08  0.5799786931888514  1.0000
  O   O557      1.0  0.49999999809078494  0.2042263003140739  0.670021238691253  1.0000
  O   O558      1.0  0.6707736003305128  0.9999999148826462  0.7325213699380454  1.0000
  O   O559      1.0  0.5792263898411962  1.83959196245293e-07  0.7325212446207302  1.0000
  O   O560      1.0  0.6250001581764457  0.17077368721393632  0.545021184570276  1.0000
  Zr  Zr141     1.0  0.6250000226217274  0.12500003373264235  0.8749999859889761  1.0000
  Zr  Zr142     1.0  0.5000000253850391  0.12499998826494414  0.9375000746833908  1.0000
  Zr  Zr143     1.0  0.49999991562466645  6.221473779919223e-08  0.7499999394131047  1.0000
  Zr  Zr144     1.0  0.6249999372619631  0.9999999731310484  0.8125000539114874  1.0000
  Si  Si141     1.0  0.6250000260522849  0.12500000498667863  0.75000000142279  1.0000
  Si  Si142     1.0  0.500000012825025  0.1250000084711991  0.8125000126367867  1.0000
  Si  Si143     1.0  0.5000000175463263  0.9999999558322336  0.8750000570000128  1.0000
  Si  Si144     1.0  0.6250000272859719  0.9999999837414587  0.9375000057216379  1.0000
  O   O561      1.0  0.5792264754839243  0.12499994420316363  0.9549786266523697  1.0000
  O   O562      1.0  0.4999999775133402  0.17077360654059523  0.767478693793618  1.0000
  O   O563      1.0  0.625000065647517  0.20422637475067723  0.89247869804172  1.0000
  O   O564      1.0  0.6707736212664611  0.12499989386541942  0.9549787235120246  1.0000
  O   O565      1.0  0.6249999422632091  0.07922637661326515  0.7950212503236828  1.0000
  O   O566      1.0  0.5457735857866312  0.12499991919640933  0.8575213390696734  1.0000
  O   O567      1.0  0.7042265012592284  0.1250001029172126  0.8575214076207612  1.0000
  O   O568      1.0  0.5000000809798538  0.04577364285169643  0.9200212454701145  1.0000
  O   O569      1.0  0.7042264136285352  0.9999999689584944  0.8299787639366695  1.0000
  O   O570      1.0  0.6249998276450704  0.04577360868565652  0.8924787946801713  1.0000
  O   O571      1.0  0.4999998816945415  0.07922643024255346  0.7674786715830427  1.0000
  O   O572      1.0  0.5457735449789284  4.11885938762715e-08  0.8299786931888514  1.0000
  O   O573      1.0  0.49999999809078494  0.20422630031407393  0.920021238691253  1.0000
  O   O574      1.0  0.6707736003305128  0.9999999148826462  0.9825213699380455  1.0000
  O   O575      1.0  0.5792263898411962  1.8395919624529302e-07  0.9825212446207303  1.0000
  O   O576      1.0  0.6250001581764457  0.17077368721393632  0.7950211845702762  1.0000
  Zr  Zr145     1.0  0.6250000226217274  0.37500003373264235  0.12499998598897613  1.0000
  Zr  Zr146     1.0  0.500000025385039  0.37499998826494424  0.18750007468339075  1.0000
  Zr  Zr147     1.0  0.4999999156246665  0.2500000622147378  0.9999999394131047  1.0000
  Zr  Zr148     1.0  0.6249999372619631  0.24999997313104846  0.06250005391148726  1.0000
  Si  Si145     1.0  0.6250000260522849  0.3750000049866787  1.4227899162016636e-09  1.0000
  Si  Si146     1.0  0.5000000128250252  0.37500000847119913  0.06250001263678673  1.0000
  Si  Si147     1.0  0.5000000175463263  0.24999995583223364  0.12500005700001277  1.0000
  Si  Si148     1.0  0.6250000272859718  0.24999998374145876  0.18750000572163783  1.0000
  O   O577      1.0  0.5792264754839243  0.3749999442031636  0.20497862665236954  1.0000
  O   O578      1.0  0.4999999775133402  0.42077360654059526  0.017478693793618043  1.0000
  O   O579      1.0  0.6250000656475168  0.4542263747506772  0.14247869804172006  1.0000
  O   O580      1.0  0.6707736212664611  0.3749998938654195  0.20497872351202454  1.0000
  O   O581      1.0  0.6249999422632092  0.32922637661326515  0.04502125032368278  1.0000
  O   O582      1.0  0.5457735857866312  0.3749999191964094  0.10752133906967341  1.0000
  O   O583      1.0  0.7042265012592281  0.37500010291721264  0.1075214076207612  1.0000
  O   O584      1.0  0.5000000809798538  0.2957736428516965  0.17002124547011468  1.0000
  O   O585      1.0  0.7042264136285351  0.24999996895849444  0.07997876393666949  1.0000
  O   O586      1.0  0.6249998276450704  0.2957736086856565  0.14247879468017124  1.0000
  O   O587      1.0  0.4999998816945415  0.32922643024255344  0.017478671583042803  1.0000
  O   O588      1.0  0.5457735449789284  0.25000004118859387  0.07997869318885145  1.0000
  O   O589      1.0  0.49999999809078494  0.45422630031407396  0.1700212386912529  1.0000
  O   O590      1.0  0.6707736003305128  0.24999991488264625  0.2325213699380455  1.0000
  O   O591      1.0  0.5792263898411962  0.25000018395919626  0.23252124462073023  1.0000
  O   O592      1.0  0.6250001581764458  0.4207736872139363  0.045021184570276096  1.0000
  Zr  Zr149     1.0  0.6250000226217274  0.37500003373264235  0.3749999859889762  1.0000
  Zr  Zr150     1.0  0.500000025385039  0.3749999882649442  0.4375000746833907  1.0000
  Zr  Zr151     1.0  0.4999999156246665  0.2500000622147378  0.24999993941310475  1.0000
  Zr  Zr152     1.0  0.6249999372619631  0.24999997313104844  0.3125000539114873  1.0000
  Si  Si149     1.0  0.6250000260522849  0.3750000049866787  0.25000000142278994  1.0000
  Si  Si150     1.0  0.5000000128250252  0.37500000847119913  0.31250001263678673  1.0000
  Si  Si151     1.0  0.5000000175463263  0.24999995583223364  0.3750000570000128  1.0000
  Si  Si152     1.0  0.6250000272859719  0.24999998374145876  0.4375000057216378  1.0000
  O   O593      1.0  0.5792264754839243  0.3749999442031636  0.45497862665236954  1.0000
  O   O594      1.0  0.4999999775133402  0.42077360654059526  0.26747869379361805  1.0000
  O   O595      1.0  0.6250000656475169  0.45422637475067723  0.39247869804172003  1.0000
  O   O596      1.0  0.670773621266461  0.3749998938654195  0.4549787235120245  1.0000
  O   O597      1.0  0.6249999422632091  0.32922637661326515  0.2950212503236828  1.0000
  O   O598      1.0  0.5457735857866312  0.3749999191964094  0.3575213390696734  1.0000
  O   O599      1.0  0.7042265012592284  0.3750001029172126  0.3575214076207612  1.0000
  O   O600      1.0  0.5000000809798538  0.2957736428516965  0.42002124547011466  1.0000
  O   O601      1.0  0.7042264136285351  0.24999996895849444  0.3299787639366695  1.0000
  O   O602      1.0  0.6249998276450704  0.29577360868565655  0.3924787946801712  1.0000
  O   O603      1.0  0.4999998816945415  0.32922643024255344  0.26747867158304284  1.0000
  O   O604      1.0  0.5457735449789284  0.25000004118859387  0.3299786931888515  1.0000
  O   O605      1.0  0.49999999809078494  0.45422630031407396  0.4200212386912529  1.0000
  O   O606      1.0  0.6707736003305128  0.24999991488264625  0.48252136993804545  1.0000
  O   O607      1.0  0.5792263898411962  0.2500001839591963  0.4825212446207302  1.0000
  O   O608      1.0  0.6250001581764457  0.4207736872139363  0.2950211845702761  1.0000
  Zr  Zr153     1.0  0.6250000226217274  0.37500003373264235  0.6249999859889761  1.0000
  Zr  Zr154     1.0  0.500000025385039  0.3749999882649442  0.6875000746833907  1.0000
  Zr  Zr155     1.0  0.49999991562466645  0.2500000622147378  0.4999999394131047  1.0000
  Zr  Zr156     1.0  0.6249999372619631  0.24999997313104844  0.5625000539114872  1.0000
  Si  Si153     1.0  0.6250000260522849  0.3750000049866786  0.5000000014227899  1.0000
  Si  Si154     1.0  0.5000000128250252  0.3750000084711992  0.5625000126367867  1.0000
  Si  Si155     1.0  0.5000000175463263  0.24999995583223364  0.6250000570000128  1.0000
  Si  Si156     1.0  0.6250000272859718  0.24999998374145876  0.6875000057216377  1.0000
  O   O609      1.0  0.5792264754839243  0.3749999442031636  0.7049786266523694  1.0000
  O   O610      1.0  0.4999999775133402  0.42077360654059526  0.517478693793618  1.0000
  O   O611      1.0  0.6250000656475168  0.45422637475067723  0.64247869804172  1.0000
  O   O612      1.0  0.6707736212664611  0.3749998938654195  0.7049787235120244  1.0000
  O   O613      1.0  0.6249999422632092  0.32922637661326515  0.5450212503236828  1.0000
  O   O614      1.0  0.5457735857866312  0.3749999191964094  0.6075213390696734  1.0000
  O   O615      1.0  0.7042265012592281  0.3750001029172126  0.6075214076207611  1.0000
  O   O616      1.0  0.5000000809798538  0.2957736428516965  0.6700212454701147  1.0000
  O   O617      1.0  0.7042264136285351  0.24999996895849444  0.5799787639366695  1.0000
  O   O618      1.0  0.6249998276450704  0.29577360868565655  0.6424787946801712  1.0000
  O   O619      1.0  0.4999998816945415  0.32922643024255344  0.5174786715830427  1.0000
  O   O620      1.0  0.5457735449789284  0.25000004118859387  0.5799786931888514  1.0000
  O   O621      1.0  0.49999999809078494  0.45422630031407396  0.670021238691253  1.0000
  O   O622      1.0  0.6707736003305128  0.24999991488264625  0.7325213699380454  1.0000
  O   O623      1.0  0.5792263898411962  0.25000018395919626  0.7325212446207302  1.0000
  O   O624      1.0  0.6250001581764457  0.4207736872139363  0.545021184570276  1.0000
  Zr  Zr157     1.0  0.6250000226217274  0.3750000337326424  0.8749999859889761  1.0000
  Zr  Zr158     1.0  0.500000025385039  0.3749999882649442  0.9375000746833908  1.0000
  Zr  Zr159     1.0  0.49999991562466645  0.25000006221473786  0.7499999394131047  1.0000
  Zr  Zr160     1.0  0.6249999372619631  0.24999997313104846  0.8125000539114874  1.0000
  Si  Si157     1.0  0.6250000260522849  0.3750000049866787  0.7500000014227899  1.0000
  Si  Si158     1.0  0.500000012825025  0.3750000084711992  0.8125000126367867  1.0000
  Si  Si159     1.0  0.5000000175463263  0.24999995583223364  0.8750000570000128  1.0000
  Si  Si160     1.0  0.6250000272859719  0.2499999837414588  0.9375000057216379  1.0000
  O   O625      1.0  0.5792264754839243  0.3749999442031637  0.9549786266523697  1.0000
  O   O626      1.0  0.4999999775133402  0.4207736065405952  0.767478693793618  1.0000
  O   O627      1.0  0.6250000656475169  0.4542263747506773  0.89247869804172  1.0000
  O   O628      1.0  0.6707736212664611  0.3749998938654195  0.9549787235120246  1.0000
  O   O629      1.0  0.6249999422632091  0.32922637661326515  0.7950212503236826  1.0000
  O   O630      1.0  0.5457735857866312  0.3749999191964094  0.8575213390696733  1.0000
  O   O631      1.0  0.7042265012592284  0.37500010291721264  0.8575214076207612  1.0000
  O   O632      1.0  0.5000000809798538  0.2957736428516965  0.9200212454701145  1.0000
  O   O633      1.0  0.7042264136285352  0.24999996895849447  0.8299787639366695  1.0000
  O   O634      1.0  0.6249998276450704  0.29577360868565655  0.8924787946801713  1.0000
  O   O635      1.0  0.4999998816945415  0.32922643024255355  0.7674786715830427  1.0000
  O   O636      1.0  0.5457735449789284  0.2500000411885939  0.8299786931888514  1.0000
  O   O637      1.0  0.49999999809078494  0.45422630031407396  0.9200212386912529  1.0000
  O   O638      1.0  0.6707736003305128  0.24999991488264625  0.9825213699380455  1.0000
  O   O639      1.0  0.5792263898411962  0.2500001839591963  0.9825212446207302  1.0000
  O   O640      1.0  0.6250001581764457  0.42077368721393643  0.7950211845702762  1.0000
  Zr  Zr161     1.0  0.6250000226217274  0.6250000337326423  0.12499998598897614  1.0000
  Zr  Zr162     1.0  0.500000025385039  0.6249999882649442  0.18750007468339075  1.0000
  Zr  Zr163     1.0  0.4999999156246665  0.5000000622147378  0.9999999394131047  1.0000
  Zr  Zr164     1.0  0.6249999372619631  0.49999997313104844  0.06250005391148726  1.0000
  Si  Si161     1.0  0.6250000260522849  0.6250000049866785  1.4227899162016624e-09  1.0000
  Si  Si162     1.0  0.5000000128250252  0.6250000084711991  0.06250001263678673  1.0000
  Si  Si163     1.0  0.5000000175463263  0.4999999558322336  0.12500005700001277  1.0000
  Si  Si164     1.0  0.6250000272859716  0.49999998374145876  0.18750000572163783  1.0000
  O   O641      1.0  0.5792264754839243  0.6249999442031636  0.20497862665236954  1.0000
  O   O642      1.0  0.4999999775133402  0.6707736065405953  0.017478693793618043  1.0000
  O   O643      1.0  0.6250000656475168  0.7042263747506773  0.14247869804172006  1.0000
  O   O644      1.0  0.6707736212664611  0.6249998938654194  0.20497872351202454  1.0000
  O   O645      1.0  0.6249999422632092  0.5792263766132651  0.04502125032368278  1.0000
  O   O646      1.0  0.5457735857866312  0.6249999191964094  0.10752133906967341  1.0000
  O   O647      1.0  0.7042265012592281  0.6250001029172128  0.1075214076207612  1.0000
  O   O648      1.0  0.5000000809798537  0.5457736428516965  0.17002124547011468  1.0000
  O   O649      1.0  0.7042264136285351  0.4999999689584944  0.07997876393666949  1.0000
  O   O650      1.0  0.6249998276450704  0.5457736086856565  0.14247879468017124  1.0000
  O   O651      1.0  0.4999998816945415  0.5792264302425534  0.017478671583042803  1.0000
  O   O652      1.0  0.5457735449789284  0.5000000411885939  0.07997869318885145  1.0000
  O   O653      1.0  0.49999999809078494  0.7042263003140738  0.1700212386912529  1.0000
  O   O654      1.0  0.6707736003305128  0.4999999148826462  0.2325213699380455  1.0000
  O   O655      1.0  0.5792263898411962  0.5000001839591962  0.23252124462073023  1.0000
  O   O656      1.0  0.6250001581764458  0.6707736872139363  0.045021184570276096  1.0000
  Zr  Zr165     1.0  0.6250000226217274  0.6250000337326423  0.37499998598897616  1.0000
  Zr  Zr166     1.0  0.500000025385039  0.624999988264944  0.43750007468339075  1.0000
  Zr  Zr167     1.0  0.4999999156246665  0.5000000622147378  0.24999993941310478  1.0000
  Zr  Zr168     1.0  0.6249999372619631  0.49999997313104844  0.3125000539114873  1.0000
  Si  Si165     1.0  0.6250000260522849  0.6250000049866787  0.25000000142278994  1.0000
  Si  Si166     1.0  0.5000000128250252  0.6250000084711992  0.31250001263678673  1.0000
  Si  Si167     1.0  0.5000000175463263  0.4999999558322336  0.37500005700001277  1.0000
  Si  Si168     1.0  0.6250000272859718  0.4999999837414587  0.43750000572163783  1.0000
  O   O657      1.0  0.5792264754839243  0.6249999442031636  0.4549786266523696  1.0000
  O   O658      1.0  0.4999999775133402  0.6707736065405951  0.26747869379361805  1.0000
  O   O659      1.0  0.6250000656475169  0.7042263747506773  0.39247869804172003  1.0000
  O   O660      1.0  0.670773621266461  0.6249998938654193  0.45497872351202456  1.0000
  O   O661      1.0  0.6249999422632091  0.5792263766132651  0.29502125032368276  1.0000
  O   O662      1.0  0.5457735857866312  0.6249999191964093  0.3575213390696734  1.0000
  O   O663      1.0  0.7042265012592284  0.6250001029172126  0.3575214076207613  1.0000
  O   O664      1.0  0.5000000809798537  0.5457736428516964  0.42002124547011466  1.0000
  O   O665      1.0  0.7042264136285351  0.4999999689584944  0.3299787639366695  1.0000
  O   O666      1.0  0.6249998276450704  0.5457736086856565  0.3924787946801713  1.0000
  O   O667      1.0  0.4999998816945415  0.5792264302425534  0.26747867158304284  1.0000
  O   O668      1.0  0.5457735449789284  0.5000000411885939  0.3299786931888515  1.0000
  O   O669      1.0  0.49999999809078494  0.7042263003140741  0.4200212386912529  1.0000
  O   O670      1.0  0.6707736003305128  0.4999999148826463  0.48252136993804556  1.0000
  O   O671      1.0  0.5792263898411962  0.5000001839591962  0.4825212446207302  1.0000
  O   O672      1.0  0.6250001581764457  0.6707736872139364  0.2950211845702761  1.0000
  Zr  Zr169     1.0  0.6250000226217274  0.6250000337326426  0.6249999859889761  1.0000
  Zr  Zr170     1.0  0.500000025385039  0.6249999882649442  0.6875000746833907  1.0000
  Zr  Zr171     1.0  0.49999991562466645  0.5000000622147378  0.4999999394131047  1.0000
  Zr  Zr172     1.0  0.6249999372619631  0.49999997313104844  0.5625000539114873  1.0000
  Si  Si169     1.0  0.6250000260522849  0.6250000049866785  0.5000000014227899  1.0000
  Si  Si170     1.0  0.5000000128250252  0.6250000084711991  0.5625000126367867  1.0000
  Si  Si171     1.0  0.5000000175463263  0.4999999558322336  0.6250000570000128  1.0000
  Si  Si172     1.0  0.6250000272859716  0.4999999837414587  0.6875000057216378  1.0000
  O   O673      1.0  0.5792264754839243  0.6249999442031636  0.7049786266523695  1.0000
  O   O674      1.0  0.4999999775133402  0.6707736065405953  0.517478693793618  1.0000
  O   O675      1.0  0.6250000656475168  0.7042263747506773  0.6424786980417201  1.0000
  O   O676      1.0  0.6707736212664611  0.6249998938654193  0.7049787235120245  1.0000
  O   O677      1.0  0.6249999422632092  0.5792263766132651  0.5450212503236829  1.0000
  O   O678      1.0  0.5457735857866312  0.6249999191964094  0.6075213390696733  1.0000
  O   O679      1.0  0.7042265012592281  0.6250001029172128  0.6075214076207612  1.0000
  O   O680      1.0  0.5000000809798537  0.5457736428516964  0.6700212454701145  1.0000
  O   O681      1.0  0.7042264136285351  0.4999999689584944  0.5799787639366695  1.0000
  O   O682      1.0  0.6249998276450704  0.5457736086856565  0.6424787946801712  1.0000
  O   O683      1.0  0.4999998816945415  0.5792264302425534  0.5174786715830428  1.0000
  O   O684      1.0  0.5457735449789284  0.5000000411885939  0.5799786931888514  1.0000
  O   O685      1.0  0.49999999809078494  0.7042263003140737  0.670021238691253  1.0000
  O   O686      1.0  0.6707736003305128  0.4999999148826463  0.7325213699380455  1.0000
  O   O687      1.0  0.5792263898411962  0.5000001839591962  0.7325212446207303  1.0000
  O   O688      1.0  0.6250001581764457  0.6707736872139363  0.545021184570276  1.0000
  Zr  Zr173     1.0  0.6250000226217274  0.6250000337326423  0.8749999859889761  1.0000
  Zr  Zr174     1.0  0.500000025385039  0.6249999882649442  0.9375000746833908  1.0000
  Zr  Zr175     1.0  0.49999991562466645  0.5000000622147378  0.7499999394131047  1.0000
  Zr  Zr176     1.0  0.6249999372619631  0.4999999731310484  0.8125000539114872  1.0000
  Si  Si173     1.0  0.6250000260522849  0.6250000049866787  0.7500000014227899  1.0000
  Si  Si174     1.0  0.500000012825025  0.6250000084711991  0.8125000126367867  1.0000
  Si  Si175     1.0  0.5000000175463263  0.4999999558322336  0.8750000570000128  1.0000
  Si  Si176     1.0  0.6250000272859718  0.4999999837414587  0.9375000057216377  1.0000
  O   O689      1.0  0.5792264754839243  0.6249999442031635  0.9549786266523697  1.0000
  O   O690      1.0  0.4999999775133402  0.6707736065405951  0.767478693793618  1.0000
  O   O691      1.0  0.6250000656475169  0.7042263747506773  0.89247869804172  1.0000
  O   O692      1.0  0.6707736212664611  0.6249998938654194  0.9549787235120246  1.0000
  O   O693      1.0  0.6249999422632091  0.579226376613265  0.7950212503236826  1.0000
  O   O694      1.0  0.5457735857866312  0.6249999191964093  0.8575213390696733  1.0000
  O   O695      1.0  0.7042265012592284  0.6250001029172126  0.8575214076207612  1.0000
  O   O696      1.0  0.5000000809798537  0.5457736428516965  0.9200212454701145  1.0000
  O   O697      1.0  0.7042264136285352  0.49999996895849436  0.8299787639366695  1.0000
  O   O698      1.0  0.6249998276450704  0.5457736086856565  0.8924787946801713  1.0000
  O   O699      1.0  0.4999998816945415  0.5792264302425535  0.7674786715830427  1.0000
  O   O700      1.0  0.5457735449789284  0.5000000411885939  0.8299786931888514  1.0000
  O   O701      1.0  0.49999999809078494  0.7042263003140741  0.9200212386912529  1.0000
  O   O702      1.0  0.6707736003305128  0.4999999148826463  0.9825213699380454  1.0000
  O   O703      1.0  0.5792263898411962  0.5000001839591962  0.9825212446207302  1.0000
  O   O704      1.0  0.6250001581764457  0.6707736872139363  0.7950211845702762  1.0000
  Zr  Zr177     1.0  0.6250000226217274  0.8750000337326422  0.12499998598897614  1.0000
  Zr  Zr178     1.0  0.500000025385039  0.8749999882649442  0.1875000746833907  1.0000
  Zr  Zr179     1.0  0.4999999156246665  0.7500000622147378  0.9999999394131047  1.0000
  Zr  Zr180     1.0  0.6249999372619631  0.7499999731310484  0.06250005391148726  1.0000
  Si  Si177     1.0  0.6250000260522849  0.8750000049866786  1.422789916201667e-09  1.0000
  Si  Si178     1.0  0.500000012825025  0.8750000084711992  0.06250001263678673  1.0000
  Si  Si179     1.0  0.5000000175463263  0.7499999558322336  0.12500005700001277  1.0000
  Si  Si180     1.0  0.6250000272859716  0.7499999837414587  0.1875000057216378  1.0000
  O   O705      1.0  0.5792264754839243  0.8749999442031636  0.20497862665236952  1.0000
  O   O706      1.0  0.4999999775133402  0.9207736065405953  0.01747869379361804  1.0000
  O   O707      1.0  0.6250000656475168  0.9542263747506772  0.14247869804172006  1.0000
  O   O708      1.0  0.6707736212664611  0.8749998938654194  0.2049787235120245  1.0000
  O   O709      1.0  0.6249999422632092  0.8292263766132651  0.04502125032368279  1.0000
  O   O710      1.0  0.5457735857866312  0.8749999191964094  0.10752133906967341  1.0000
  O   O711      1.0  0.7042265012592281  0.8750001029172126  0.1075214076207612  1.0000
  O   O712      1.0  0.5000000809798537  0.7957736428516964  0.17002124547011463  1.0000
  O   O713      1.0  0.7042264136285351  0.7499999689584945  0.07997876393666949  1.0000
  O   O714      1.0  0.6249998276450704  0.7957736086856566  0.14247879468017124  1.0000
  O   O715      1.0  0.4999998816945415  0.8292264302425535  0.017478671583042803  1.0000
  O   O716      1.0  0.5457735449789284  0.7500000411885939  0.07997869318885145  1.0000
  O   O717      1.0  0.49999999809078494  0.9542263003140738  0.17002123869125288  1.0000
  O   O718      1.0  0.6707736003305128  0.7499999148826462  0.23252136993804548  1.0000
  O   O719      1.0  0.5792263898411962  0.7500001839591963  0.2325212446207302  1.0000
  O   O720      1.0  0.6250001581764458  0.9207736872139364  0.04502118457027611  1.0000
  Zr  Zr181     1.0  0.6250000226217274  0.8750000337326423  0.37499998598897616  1.0000
  Zr  Zr182     1.0  0.500000025385039  0.8749999882649442  0.4375000746833907  1.0000
  Zr  Zr183     1.0  0.4999999156246665  0.7500000622147378  0.24999993941310475  1.0000
  Zr  Zr184     1.0  0.6249999372619631  0.7499999731310484  0.3125000539114873  1.0000
  Si  Si181     1.0  0.6250000260522849  0.8750000049866785  0.2500000014227899  1.0000
  Si  Si182     1.0  0.500000012825025  0.8750000084711992  0.3125000126367867  1.0000
  Si  Si183     1.0  0.5000000175463263  0.7499999558322336  0.37500005700001277  1.0000
  Si  Si184     1.0  0.6250000272859718  0.7499999837414587  0.4375000057216378  1.0000
  O   O721      1.0  0.5792264754839243  0.8749999442031636  0.45497862665236954  1.0000
  O   O722      1.0  0.4999999775133402  0.9207736065405953  0.267478693793618  1.0000
  O   O723      1.0  0.6250000656475169  0.9542263747506773  0.39247869804172  1.0000
  O   O724      1.0  0.670773621266461  0.8749998938654193  0.4549787235120245  1.0000
  O   O725      1.0  0.6249999422632091  0.8292263766132651  0.2950212503236827  1.0000
  O   O726      1.0  0.5457735857866312  0.8749999191964093  0.35752133906967337  1.0000
  O   O727      1.0  0.7042265012592284  0.8750001029172126  0.3575214076207612  1.0000
  O   O728      1.0  0.5000000809798537  0.7957736428516964  0.42002124547011466  1.0000
  O   O729      1.0  0.7042264136285351  0.7499999689584943  0.3299787639366694  1.0000
  O   O730      1.0  0.6249998276450704  0.7957736086856565  0.3924787946801712  1.0000
  O   O731      1.0  0.4999998816945415  0.8292264302425535  0.2674786715830428  1.0000
  O   O732      1.0  0.5457735449789284  0.7500000411885939  0.3299786931888515  1.0000
  O   O733      1.0  0.49999999809078494  0.9542263003140738  0.4200212386912529  1.0000
  O   O734      1.0  0.6707736003305128  0.7499999148826462  0.48252136993804545  1.0000
  O   O735      1.0  0.5792263898411962  0.7500001839591963  0.4825212446207302  1.0000
  O   O736      1.0  0.6250001581764457  0.9207736872139364  0.2950211845702761  1.0000
  Zr  Zr185     1.0  0.6250000226217274  0.8750000337326423  0.624999985988976  1.0000
  Zr  Zr186     1.0  0.500000025385039  0.8749999882649442  0.6875000746833907  1.0000
  Zr  Zr187     1.0  0.49999991562466645  0.7500000622147378  0.4999999394131047  1.0000
  Zr  Zr188     1.0  0.6249999372619631  0.7499999731310485  0.5625000539114873  1.0000
  Si  Si185     1.0  0.6250000260522849  0.8750000049866786  0.5000000014227899  1.0000
  Si  Si186     1.0  0.500000012825025  0.8750000084711992  0.5625000126367867  1.0000
  Si  Si187     1.0  0.5000000175463263  0.7499999558322336  0.6250000570000128  1.0000
  Si  Si188     1.0  0.6250000272859716  0.7499999837414587  0.6875000057216378  1.0000
  O   O737      1.0  0.5792264754839243  0.8749999442031636  0.7049786266523695  1.0000
  O   O738      1.0  0.4999999775133402  0.9207736065405951  0.517478693793618  1.0000
  O   O739      1.0  0.6250000656475168  0.9542263747506772  0.64247869804172  1.0000
  O   O740      1.0  0.6707736212664611  0.8749998938654194  0.7049787235120245  1.0000
  O   O741      1.0  0.6249999422632092  0.829226376613265  0.5450212503236828  1.0000
  O   O742      1.0  0.5457735857866312  0.8749999191964094  0.6075213390696733  1.0000
  O   O743      1.0  0.7042265012592281  0.8750001029172126  0.6075214076207611  1.0000
  O   O744      1.0  0.5000000809798537  0.7957736428516964  0.6700212454701145  1.0000
  O   O745      1.0  0.7042264136285351  0.7499999689584943  0.5799787639366695  1.0000
  O   O746      1.0  0.6249998276450704  0.7957736086856565  0.6424787946801712  1.0000
  O   O747      1.0  0.4999998816945415  0.8292264302425535  0.5174786715830427  1.0000
  O   O748      1.0  0.5457735449789284  0.7500000411885939  0.5799786931888514  1.0000
  O   O749      1.0  0.49999999809078494  0.9542263003140738  0.6700212386912529  1.0000
  O   O750      1.0  0.6707736003305128  0.7499999148826461  0.7325213699380455  1.0000
  O   O751      1.0  0.5792263898411962  0.7500001839591962  0.7325212446207302  1.0000
  O   O752      1.0  0.6250001581764457  0.9207736872139364  0.545021184570276  1.0000
  Zr  Zr189     1.0  0.6250000226217274  0.8750000337326422  0.8749999859889761  1.0000
  Zr  Zr190     1.0  0.500000025385039  0.8749999882649443  0.9375000746833908  1.0000
  Zr  Zr191     1.0  0.49999991562466645  0.7500000622147377  0.7499999394131047  1.0000
  Zr  Zr192     1.0  0.6249999372619631  0.7499999731310484  0.8125000539114872  1.0000
  Si  Si189     1.0  0.6250000260522849  0.8750000049866785  0.7500000014227899  1.0000
  Si  Si190     1.0  0.5000000128250249  0.8750000084711992  0.8125000126367866  1.0000
  Si  Si191     1.0  0.5000000175463263  0.7499999558322336  0.8750000570000126  1.0000
  Si  Si192     1.0  0.6250000272859718  0.7499999837414587  0.9375000057216377  1.0000
  O   O753      1.0  0.5792264754839243  0.8749999442031636  0.9549786266523694  1.0000
  O   O754      1.0  0.4999999775133402  0.9207736065405953  0.767478693793618  1.0000
  O   O755      1.0  0.6250000656475169  0.9542263747506772  0.89247869804172  1.0000
  O   O756      1.0  0.6707736212664611  0.8749998938654194  0.9549787235120244  1.0000
  O   O757      1.0  0.6249999422632091  0.8292263766132651  0.7950212503236826  1.0000
  O   O758      1.0  0.5457735857866312  0.8749999191964093  0.8575213390696733  1.0000
  O   O759      1.0  0.7042265012592284  0.8750001029172126  0.8575214076207611  1.0000
  O   O760      1.0  0.5000000809798537  0.7957736428516964  0.9200212454701145  1.0000
  O   O761      1.0  0.7042264136285352  0.7499999689584943  0.8299787639366695  1.0000
  O   O762      1.0  0.6249998276450704  0.7957736086856565  0.8924787946801713  1.0000
  O   O763      1.0  0.4999998816945415  0.8292264302425534  0.7674786715830427  1.0000
  O   O764      1.0  0.5457735449789284  0.7500000411885939  0.8299786931888513  1.0000
  O   O765      1.0  0.49999999809078494  0.9542263003140738  0.9200212386912529  1.0000
  O   O766      1.0  0.6707736003305128  0.7499999148826462  0.9825213699380454  1.0000
  O   O767      1.0  0.5792263898411962  0.7500001839591963  0.9825212446207302  1.0000
  O   O768      1.0  0.6250001581764457  0.9207736872139364  0.7950211845702762  1.0000
  Zr  Zr193     1.0  0.8750000226217275  0.12500003373264235  0.12499998598897614  1.0000
  Zr  Zr194     1.0  0.7500000253850392  0.12499998826494416  0.18750007468339075  1.0000
  Zr  Zr195     1.0  0.7499999156246665  6.221473779919223e-08  0.9999999394131047  1.0000
  Zr  Zr196     1.0  0.8749999372619632  0.9999999731310484  0.06250005391148726  1.0000
  Si  Si193     1.0  0.875000026052285  0.12500000498667863  1.4227899162016603e-09  1.0000
  Si  Si194     1.0  0.750000012825025  0.1250000084711991  0.06250001263678673  1.0000
  Si  Si195     1.0  0.7500000175463264  0.9999999558322336  0.12500005700001277  1.0000
  Si  Si196     1.0  0.8750000272859718  0.9999999837414587  0.18750000572163783  1.0000
  O   O769      1.0  0.8292264754839243  0.12499994420316364  0.20497862665236954  1.0000
  O   O770      1.0  0.7499999775133402  0.1707736065405952  0.017478693793618043  1.0000
  O   O771      1.0  0.875000065647517  0.20422637475067723  0.14247869804172006  1.0000
  O   O772      1.0  0.9207736212664612  0.12499989386541942  0.20497872351202454  1.0000
  O   O773      1.0  0.8749999422632093  0.07922637661326515  0.04502125032368278  1.0000
  O   O774      1.0  0.7957735857866314  0.12499991919640933  0.10752133906967341  1.0000
  O   O775      1.0  0.9542265012592283  0.1250001029172126  0.1075214076207612  1.0000
  O   O776      1.0  0.7500000809798538  0.04577364285169643  0.17002124547011468  1.0000
  O   O777      1.0  0.9542264136285352  0.9999999689584944  0.07997876393666949  1.0000
  O   O778      1.0  0.8749998276450704  0.04577360868565652  0.14247879468017124  1.0000
  O   O779      1.0  0.7499998816945418  0.07922643024255346  0.017478671583042803  1.0000
  O   O780      1.0  0.7957735449789285  4.11885938762715e-08  0.07997869318885145  1.0000
  O   O781      1.0  0.749999998090785  0.20422630031407393  0.1700212386912529  1.0000
  O   O782      1.0  0.9207736003305128  0.9999999148826462  0.2325213699380455  1.0000
  O   O783      1.0  0.8292263898411962  1.83959196245293e-07  0.23252124462073023  1.0000
  O   O784      1.0  0.8750001581764457  0.17077368721393632  0.045021184570276096  1.0000
  Zr  Zr197     1.0  0.8750000226217276  0.12500003373264235  0.37499998598897616  1.0000
  Zr  Zr198     1.0  0.7500000253850393  0.12499998826494414  0.43750007468339075  1.0000
  Zr  Zr199     1.0  0.7499999156246665  6.221473779919223e-08  0.24999993941310475  1.0000
  Zr  Zr200     1.0  0.8749999372619633  0.9999999731310484  0.3125000539114873  1.0000
  Si  Si197     1.0  0.875000026052285  0.12500000498667865  0.25000000142278994  1.0000
  Si  Si198     1.0  0.7500000128250252  0.12500000847119913  0.31250001263678673  1.0000
  Si  Si199     1.0  0.7500000175463265  0.9999999558322336  0.37500005700001277  1.0000
  Si  Si200     1.0  0.875000027285972  0.9999999837414587  0.43750000572163783  1.0000
  O   O785      1.0  0.8292264754839245  0.12499994420316363  0.4549786266523696  1.0000
  O   O786      1.0  0.7499999775133402  0.17077360654059523  0.26747869379361805  1.0000
  O   O787      1.0  0.8750000656475171  0.20422637475067723  0.39247869804172014  1.0000
  O   O788      1.0  0.9207736212664612  0.1249998938654194  0.45497872351202456  1.0000
  O   O789      1.0  0.8749999422632093  0.07922637661326512  0.29502125032368276  1.0000
  O   O790      1.0  0.7957735857866314  0.12499991919640935  0.3575213390696734  1.0000
  O   O791      1.0  0.9542265012592284  0.12500010291721264  0.3575214076207613  1.0000
  O   O792      1.0  0.7500000809798538  0.04577364285169644  0.4200212454701147  1.0000
  O   O793      1.0  0.9542264136285353  0.9999999689584944  0.3299787639366695  1.0000
  O   O794      1.0  0.8749998276450704  0.04577360868565652  0.3924787946801713  1.0000
  O   O795      1.0  0.7499998816945418  0.07922643024255345  0.26747867158304284  1.0000
  O   O796      1.0  0.7957735449789285  4.11885938762715e-08  0.3299786931888515  1.0000
  O   O797      1.0  0.7499999980907851  0.2042263003140739  0.42002123869125285  1.0000
  O   O798      1.0  0.9207736003305128  0.9999999148826462  0.48252136993804545  1.0000
  O   O799      1.0  0.8292263898411962  1.8395919624529302e-07  0.4825212446207302  1.0000
  O   O800      1.0  0.8750001581764459  0.17077368721393632  0.2950211845702761  1.0000
  Zr  Zr201     1.0  0.8750000226217275  0.12500003373264235  0.6249999859889762  1.0000
  Zr  Zr202     1.0  0.7500000253850392  0.12499998826494414  0.6875000746833907  1.0000
  Zr  Zr203     1.0  0.7499999156246665  6.221473779919221e-08  0.4999999394131047  1.0000
  Zr  Zr204     1.0  0.8749999372619632  0.9999999731310484  0.5625000539114873  1.0000
  Si  Si201     1.0  0.875000026052285  0.12500000498667863  0.5000000014227899  1.0000
  Si  Si202     1.0  0.750000012825025  0.1250000084711991  0.5625000126367867  1.0000
  Si  Si203     1.0  0.7500000175463264  0.9999999558322336  0.6250000570000128  1.0000
  Si  Si204     1.0  0.8750000272859718  0.9999999837414587  0.6875000057216377  1.0000
  O   O801      1.0  0.8292264754839244  0.12499994420316363  0.7049786266523695  1.0000
  O   O802      1.0  0.7499999775133402  0.17077360654059526  0.517478693793618  1.0000
  O   O803      1.0  0.875000065647517  0.20422637475067726  0.6424786980417201  1.0000
  O   O804      1.0  0.9207736212664612  0.1249998938654194  0.7049787235120245  1.0000
  O   O805      1.0  0.8749999422632093  0.0792263766132651  0.5450212503236829  1.0000
  O   O806      1.0  0.7957735857866314  0.12499991919640933  0.6075213390696734  1.0000
  O   O807      1.0  0.9542265012592283  0.1250001029172126  0.6075214076207612  1.0000
  O   O808      1.0  0.7500000809798538  0.045773642851696425  0.6700212454701147  1.0000
  O   O809      1.0  0.9542264136285352  0.9999999689584944  0.5799787639366695  1.0000
  O   O810      1.0  0.8749998276450704  0.04577360868565651  0.6424787946801712  1.0000
  O   O811      1.0  0.7499998816945418  0.07922643024255346  0.5174786715830428  1.0000
  O   O812      1.0  0.7957735449789285  4.11885938762715e-08  0.5799786931888514  1.0000
  O   O813      1.0  0.749999998090785  0.20422630031407393  0.6700212386912529  1.0000
  O   O814      1.0  0.9207736003305128  0.9999999148826462  0.7325213699380455  1.0000
  O   O815      1.0  0.8292263898411962  1.8395919624529302e-07  0.7325212446207302  1.0000
  O   O816      1.0  0.8750001581764459  0.17077368721393635  0.545021184570276  1.0000
  Zr  Zr205     1.0  0.8750000226217276  0.12500003373264235  0.8749999859889761  1.0000
  Zr  Zr206     1.0  0.7500000253850393  0.12499998826494416  0.9375000746833908  1.0000
  Zr  Zr207     1.0  0.7499999156246665  6.221473779919223e-08  0.7499999394131048  1.0000
  Zr  Zr208     1.0  0.8749999372619633  0.9999999731310484  0.8125000539114874  1.0000
  Si  Si205     1.0  0.875000026052285  0.12500000498667863  0.75000000142279  1.0000
  Si  Si206     1.0  0.7500000128250252  0.1250000084711991  0.8125000126367867  1.0000
  Si  Si207     1.0  0.7500000175463265  0.9999999558322336  0.8750000570000128  1.0000
  Si  Si208     1.0  0.875000027285972  0.9999999837414587  0.9375000057216379  1.0000
  O   O817      1.0  0.8292264754839244  0.12499994420316364  0.9549786266523697  1.0000
  O   O818      1.0  0.7499999775133402  0.17077360654059523  0.767478693793618  1.0000
  O   O819      1.0  0.8750000656475171  0.20422637475067723  0.8924786980417201  1.0000
  O   O820      1.0  0.9207736212664612  0.12499989386541942  0.9549787235120246  1.0000
  O   O821      1.0  0.8749999422632093  0.07922637661326515  0.7950212503236828  1.0000
  O   O822      1.0  0.7957735857866314  0.12499991919640933  0.8575213390696734  1.0000
  O   O823      1.0  0.9542265012592284  0.1250001029172126  0.8575214076207612  1.0000
  O   O824      1.0  0.7500000809798538  0.04577364285169643  0.9200212454701148  1.0000
  O   O825      1.0  0.9542264136285353  0.9999999689584944  0.8299787639366695  1.0000
  O   O826      1.0  0.8749998276450704  0.04577360868565652  0.8924787946801713  1.0000
  O   O827      1.0  0.7499998816945418  0.07922643024255346  0.7674786715830427  1.0000
  O   O828      1.0  0.7957735449789285  4.1188593876271504e-08  0.8299786931888514  1.0000
  O   O829      1.0  0.7499999980907851  0.20422630031407396  0.920021238691253  1.0000
  O   O830      1.0  0.9207736003305128  0.9999999148826462  0.9825213699380455  1.0000
  O   O831      1.0  0.8292263898411962  1.83959196245293e-07  0.9825212446207303  1.0000
  O   O832      1.0  0.8750001581764457  0.17077368721393632  0.7950211845702762  1.0000
  Zr  Zr209     1.0  0.8750000226217275  0.37500003373264235  0.12499998598897614  1.0000
  Zr  Zr210     1.0  0.7500000253850392  0.3749999882649442  0.1875000746833907  1.0000
  Zr  Zr211     1.0  0.7499999156246665  0.2500000622147378  0.9999999394131047  1.0000
  Zr  Zr212     1.0  0.8749999372619632  0.24999997313104844  0.06250005391148726  1.0000
  Si  Si209     1.0  0.875000026052285  0.3750000049866787  1.4227899162016613e-09  1.0000
  Si  Si210     1.0  0.750000012825025  0.3750000084711991  0.06250001263678673  1.0000
  Si  Si211     1.0  0.7500000175463264  0.24999995583223364  0.12500005700001277  1.0000
  Si  Si212     1.0  0.8750000272859718  0.24999998374145876  0.1875000057216378  1.0000
  O   O833      1.0  0.8292264754839243  0.3749999442031636  0.20497862665236952  1.0000
  O   O834      1.0  0.7499999775133402  0.42077360654059526  0.017478693793618043  1.0000
  O   O835      1.0  0.8750000656475169  0.45422637475067723  0.14247869804172006  1.0000
  O   O836      1.0  0.9207736212664612  0.3749998938654195  0.2049787235120245  1.0000
  O   O837      1.0  0.8749999422632093  0.32922637661326515  0.04502125032368279  1.0000
  O   O838      1.0  0.7957735857866314  0.3749999191964094  0.10752133906967341  1.0000
  O   O839      1.0  0.9542265012592283  0.3750001029172126  0.1075214076207612  1.0000
  O   O840      1.0  0.7500000809798538  0.2957736428516965  0.17002124547011463  1.0000
  O   O841      1.0  0.9542264136285352  0.24999996895849444  0.07997876393666949  1.0000
  O   O842      1.0  0.8749998276450704  0.2957736086856565  0.14247879468017124  1.0000
  O   O843      1.0  0.7499998816945418  0.32922643024255344  0.017478671583042803  1.0000
  O   O844      1.0  0.7957735449789285  0.25000004118859387  0.07997869318885145  1.0000
  O   O845      1.0  0.749999998090785  0.45422630031407396  0.17002123869125288  1.0000
  O   O846      1.0  0.9207736003305128  0.24999991488264625  0.23252136993804548  1.0000
  O   O847      1.0  0.8292263898411962  0.25000018395919626  0.2325212446207302  1.0000
  O   O848      1.0  0.8750001581764457  0.42077368721393626  0.04502118457027611  1.0000
  Zr  Zr213     1.0  0.8750000226217276  0.37500003373264235  0.37499998598897616  1.0000
  Zr  Zr214     1.0  0.7500000253850393  0.3749999882649442  0.4375000746833907  1.0000
  Zr  Zr215     1.0  0.7499999156246665  0.2500000622147378  0.24999993941310475  1.0000
  Zr  Zr216     1.0  0.8749999372619633  0.24999997313104844  0.3125000539114873  1.0000
  Si  Si213     1.0  0.875000026052285  0.3750000049866786  0.2500000014227899  1.0000
  Si  Si214     1.0  0.7500000128250252  0.3750000084711991  0.3125000126367867  1.0000
  Si  Si215     1.0  0.7500000175463265  0.24999995583223364  0.37500005700001277  1.0000
  Si  Si216     1.0  0.875000027285972  0.24999998374145874  0.4375000057216378  1.0000
  O   O849      1.0  0.8292264754839245  0.3749999442031636  0.45497862665236954  1.0000
  O   O850      1.0  0.7499999775133402  0.42077360654059526  0.267478693793618  1.0000
  O   O851      1.0  0.875000065647517  0.4542263747506773  0.39247869804172003  1.0000
  O   O852      1.0  0.9207736212664612  0.3749998938654195  0.4549787235120245  1.0000
  O   O853      1.0  0.8749999422632093  0.32922637661326515  0.2950212503236827  1.0000
  O   O854      1.0  0.7957735857866314  0.37499991919640935  0.35752133906967337  1.0000
  O   O855      1.0  0.9542265012592284  0.3750001029172126  0.3575214076207612  1.0000
  O   O856      1.0  0.7500000809798538  0.29577364285169644  0.4200212454701147  1.0000
  O   O857      1.0  0.9542264136285353  0.2499999689584944  0.3299787639366694  1.0000
  O   O858      1.0  0.8749998276450704  0.29577360868565655  0.3924787946801712  1.0000
  O   O859      1.0  0.7499998816945418  0.32922643024255344  0.2674786715830428  1.0000
  O   O860      1.0  0.7957735449789285  0.25000004118859387  0.3299786931888515  1.0000
  O   O861      1.0  0.7499999980907851  0.45422630031407396  0.42002123869125285  1.0000
  O   O862      1.0  0.9207736003305128  0.24999991488264622  0.4825213699380454  1.0000
  O   O863      1.0  0.8292263898411962  0.25000018395919626  0.4825212446207302  1.0000
  O   O864      1.0  0.8750001581764459  0.42077368721393626  0.2950211845702761  1.0000
  Zr  Zr217     1.0  0.8750000226217275  0.37500003373264235  0.6249999859889761  1.0000
  Zr  Zr218     1.0  0.7500000253850392  0.3749999882649442  0.6875000746833907  1.0000
  Zr  Zr219     1.0  0.7499999156246665  0.2500000622147378  0.4999999394131047  1.0000
  Zr  Zr220     1.0  0.8749999372619632  0.24999997313104844  0.5625000539114872  1.0000
  Si  Si217     1.0  0.875000026052285  0.3750000049866786  0.5000000014227899  1.0000
  Si  Si218     1.0  0.750000012825025  0.37500000847119913  0.5625000126367867  1.0000
  Si  Si219     1.0  0.7500000175463264  0.2499999558322336  0.6250000570000128  1.0000
  Si  Si220     1.0  0.8750000272859718  0.24999998374145876  0.6875000057216377  1.0000
  O   O865      1.0  0.8292264754839244  0.3749999442031636  0.7049786266523695  1.0000
  O   O866      1.0  0.7499999775133402  0.4207736065405952  0.517478693793618  1.0000
  O   O867      1.0  0.8750000656475169  0.4542263747506773  0.64247869804172  1.0000
  O   O868      1.0  0.9207736212664612  0.3749998938654194  0.7049787235120245  1.0000
  O   O869      1.0  0.8749999422632093  0.3292263766132651  0.5450212503236828  1.0000
  O   O870      1.0  0.7957735857866314  0.37499991919640935  0.6075213390696734  1.0000
  O   O871      1.0  0.9542265012592283  0.3750001029172126  0.6075214076207611  1.0000
  O   O872      1.0  0.7500000809798538  0.29577364285169644  0.6700212454701147  1.0000
  O   O873      1.0  0.9542264136285352  0.24999996895849444  0.5799787639366695  1.0000
  O   O874      1.0  0.8749998276450704  0.2957736086856565  0.6424787946801712  1.0000
  O   O875      1.0  0.7499998816945418  0.32922643024255344  0.5174786715830427  1.0000
  O   O876      1.0  0.7957735449789285  0.25000004118859387  0.5799786931888514  1.0000
  O   O877      1.0  0.749999998090785  0.45422630031407396  0.6700212386912529  1.0000
  O   O878      1.0  0.9207736003305128  0.24999991488264622  0.7325213699380455  1.0000
  O   O879      1.0  0.8292263898411962  0.25000018395919626  0.7325212446207302  1.0000
  O   O880      1.0  0.8750001581764459  0.42077368721393626  0.545021184570276  1.0000
  Zr  Zr221     1.0  0.8750000226217276  0.3750000337326424  0.8749999859889761  1.0000
  Zr  Zr222     1.0  0.7500000253850393  0.3749999882649442  0.9375000746833908  1.0000
  Zr  Zr223     1.0  0.7499999156246665  0.2500000622147378  0.7499999394131047  1.0000
  Zr  Zr224     1.0  0.8749999372619633  0.24999997313104844  0.8125000539114874  1.0000
  Si  Si221     1.0  0.875000026052285  0.3750000049866786  0.7500000014227899  1.0000
  Si  Si222     1.0  0.7500000128250252  0.3750000084711992  0.8125000126367867  1.0000
  Si  Si223     1.0  0.7500000175463265  0.24999995583223364  0.8750000570000128  1.0000
  Si  Si224     1.0  0.875000027285972  0.2499999837414588  0.9375000057216379  1.0000
  O   O881      1.0  0.8292264754839244  0.3749999442031636  0.9549786266523697  1.0000
  O   O882      1.0  0.7499999775133402  0.42077360654059526  0.767478693793618  1.0000
  O   O883      1.0  0.875000065647517  0.4542263747506773  0.8924786980417201  1.0000
  O   O884      1.0  0.9207736212664612  0.3749998938654194  0.9549787235120246  1.0000
  O   O885      1.0  0.8749999422632093  0.32922637661326515  0.7950212503236828  1.0000
  O   O886      1.0  0.7957735857866314  0.37499991919640935  0.8575213390696733  1.0000
  O   O887      1.0  0.9542265012592284  0.37500010291721264  0.8575214076207612  1.0000
  O   O888      1.0  0.7500000809798538  0.2957736428516965  0.9200212454701148  1.0000
  O   O889      1.0  0.9542264136285353  0.24999996895849444  0.8299787639366695  1.0000
  O   O890      1.0  0.8749998276450704  0.29577360868565655  0.8924787946801713  1.0000
  O   O891      1.0  0.7499998816945418  0.32922643024255355  0.7674786715830427  1.0000
  O   O892      1.0  0.7957735449789285  0.25000004118859387  0.8299786931888514  1.0000
  O   O893      1.0  0.7499999980907851  0.45422630031407396  0.9200212386912529  1.0000
  O   O894      1.0  0.9207736003305128  0.24999991488264625  0.9825213699380455  1.0000
  O   O895      1.0  0.8292263898411962  0.2500001839591963  0.9825212446207302  1.0000
  O   O896      1.0  0.8750001581764457  0.42077368721393643  0.7950211845702762  1.0000
  Zr  Zr225     1.0  0.8750000226217275  0.6250000337326423  0.12499998598897614  1.0000
  Zr  Zr226     1.0  0.7500000253850392  0.6249999882649442  0.1875000746833907  1.0000
  Zr  Zr227     1.0  0.7499999156246665  0.5000000622147379  0.9999999394131047  1.0000
  Zr  Zr228     1.0  0.8749999372619632  0.4999999731310485  0.06250005391148726  1.0000
  Si  Si225     1.0  0.875000026052285  0.6250000049866787  1.4227899162016647e-09  1.0000
  Si  Si226     1.0  0.750000012825025  0.6250000084711992  0.06250001263678673  1.0000
  Si  Si227     1.0  0.7500000175463264  0.4999999558322336  0.1250000570000128  1.0000
  Si  Si228     1.0  0.8750000272859717  0.49999998374145876  0.1875000057216378  1.0000
  O   O897      1.0  0.8292264754839243  0.6249999442031638  0.20497862665236954  1.0000
  O   O898      1.0  0.7499999775133402  0.6707736065405951  0.01747869379361804  1.0000
  O   O899      1.0  0.8750000656475169  0.7042263747506773  0.14247869804172006  1.0000
  O   O900      1.0  0.9207736212664612  0.6249998938654194  0.20497872351202454  1.0000
  O   O901      1.0  0.8749999422632093  0.5792263766132653  0.04502125032368279  1.0000
  O   O902      1.0  0.7957735857866314  0.6249999191964094  0.10752133906967341  1.0000
  O   O903      1.0  0.9542265012592283  0.6250001029172128  0.1075214076207612  1.0000
  O   O904      1.0  0.7500000809798538  0.5457736428516965  0.17002124547011463  1.0000
  O   O905      1.0  0.9542264136285352  0.49999996895849447  0.07997876393666949  1.0000
  O   O906      1.0  0.8749998276450704  0.5457736086856566  0.14247879468017124  1.0000
  O   O907      1.0  0.7499998816945418  0.5792264302425535  0.017478671583042803  1.0000
  O   O908      1.0  0.7957735449789285  0.500000041188594  0.07997869318885145  1.0000
  O   O909      1.0  0.749999998090785  0.7042263003140741  0.17002123869125288  1.0000
  O   O910      1.0  0.9207736003305128  0.4999999148826463  0.23252136993804548  1.0000
  O   O911      1.0  0.8292263898411962  0.5000001839591963  0.2325212446207302  1.0000
  O   O912      1.0  0.8750001581764457  0.6707736872139364  0.04502118457027611  1.0000
  Zr  Zr229     1.0  0.8750000226217276  0.6250000337326423  0.37499998598897616  1.0000
  Zr  Zr230     1.0  0.7500000253850393  0.6249999882649442  0.4375000746833907  1.0000
  Zr  Zr231     1.0  0.7499999156246665  0.5000000622147379  0.24999993941310475  1.0000
  Zr  Zr232     1.0  0.8749999372619633  0.49999997313104844  0.3125000539114873  1.0000
  Si  Si229     1.0  0.875000026052285  0.6250000049866787  0.2500000014227899  1.0000
  Si  Si230     1.0  0.7500000128250252  0.6250000084711992  0.31250001263678673  1.0000
  Si  Si231     1.0  0.7500000175463265  0.49999995583223367  0.37500005700001277  1.0000
  Si  Si232     1.0  0.8750000272859718  0.49999998374145876  0.4375000057216378  1.0000
  O   O913      1.0  0.8292264754839245  0.6249999442031636  0.45497862665236954  1.0000
  O   O914      1.0  0.7499999775133402  0.6707736065405955  0.267478693793618  1.0000
  O   O915      1.0  0.875000065647517  0.7042263747506774  0.39247869804172003  1.0000
  O   O916      1.0  0.9207736212664612  0.6249998938654193  0.4549787235120245  1.0000
  O   O917      1.0  0.8749999422632093  0.5792263766132653  0.2950212503236828  1.0000
  O   O918      1.0  0.7957735857866314  0.6249999191964094  0.3575213390696734  1.0000
  O   O919      1.0  0.9542265012592284  0.6250001029172128  0.3575214076207612  1.0000
  O   O920      1.0  0.7500000809798538  0.5457736428516965  0.42002124547011466  1.0000
  O   O921      1.0  0.9542264136285353  0.49999996895849447  0.3299787639366694  1.0000
  O   O922      1.0  0.8749998276450704  0.5457736086856566  0.3924787946801712  1.0000
  O   O923      1.0  0.7499998816945418  0.5792264302425535  0.2674786715830428  1.0000
  O   O924      1.0  0.7957735449789285  0.500000041188594  0.3299786931888514  1.0000
  O   O925      1.0  0.7499999980907851  0.7042263003140738  0.42002123869125285  1.0000
  O   O926      1.0  0.9207736003305128  0.49999991488264633  0.48252136993804545  1.0000
  O   O927      1.0  0.8292263898411962  0.5000001839591963  0.4825212446207302  1.0000
  O   O928      1.0  0.8750001581764459  0.6707736872139364  0.2950211845702761  1.0000
  Zr  Zr233     1.0  0.8750000226217275  0.6250000337326426  0.6249999859889761  1.0000
  Zr  Zr234     1.0  0.7500000253850392  0.6249999882649442  0.6875000746833907  1.0000
  Zr  Zr235     1.0  0.7499999156246665  0.5000000622147379  0.4999999394131047  1.0000
  Zr  Zr236     1.0  0.8749999372619632  0.49999997313104844  0.5625000539114873  1.0000
  Si  Si233     1.0  0.875000026052285  0.6250000049866787  0.5000000014227899  1.0000
  Si  Si234     1.0  0.750000012825025  0.6250000084711991  0.5625000126367868  1.0000
  Si  Si235     1.0  0.7500000175463264  0.49999995583223367  0.6250000570000128  1.0000
  Si  Si236     1.0  0.8750000272859717  0.49999998374145876  0.6875000057216378  1.0000
  O   O929      1.0  0.8292264754839244  0.6249999442031636  0.7049786266523695  1.0000
  O   O930      1.0  0.7499999775133402  0.6707736065405951  0.517478693793618  1.0000
  O   O931      1.0  0.8750000656475169  0.7042263747506773  0.6424786980417201  1.0000
  O   O932      1.0  0.9207736212664612  0.6249998938654194  0.7049787235120245  1.0000
  O   O933      1.0  0.8749999422632093  0.5792263766132651  0.5450212503236829  1.0000
  O   O934      1.0  0.7957735857866314  0.6249999191964094  0.6075213390696734  1.0000
  O   O935      1.0  0.9542265012592283  0.6250001029172128  0.6075214076207612  1.0000
  O   O936      1.0  0.7500000809798538  0.5457736428516965  0.6700212454701147  1.0000
  O   O937      1.0  0.9542264136285352  0.4999999689584944  0.5799787639366695  1.0000
  O   O938      1.0  0.8749998276450704  0.5457736086856566  0.6424787946801712  1.0000
  O   O939      1.0  0.7499998816945418  0.5792264302425535  0.5174786715830428  1.0000
  O   O940      1.0  0.7957735449789285  0.5000000411885939  0.5799786931888514  1.0000
  O   O941      1.0  0.749999998090785  0.7042263003140741  0.670021238691253  1.0000
  O   O942      1.0  0.9207736003305128  0.49999991488264633  0.7325213699380455  1.0000
  O   O943      1.0  0.8292263898411962  0.5000001839591963  0.7325212446207303  1.0000
  O   O944      1.0  0.8750001581764459  0.6707736872139363  0.545021184570276  1.0000
  Zr  Zr237     1.0  0.8750000226217276  0.6250000337326423  0.8749999859889761  1.0000
  Zr  Zr238     1.0  0.7500000253850393  0.6249999882649442  0.9375000746833908  1.0000
  Zr  Zr239     1.0  0.7499999156246665  0.5000000622147379  0.7499999394131047  1.0000
  Zr  Zr240     1.0  0.8749999372619633  0.49999997313104844  0.8125000539114872  1.0000
  Si  Si237     1.0  0.875000026052285  0.6250000049866787  0.7500000014227899  1.0000
  Si  Si238     1.0  0.7500000128250252  0.6250000084711992  0.8125000126367867  1.0000
  Si  Si239     1.0  0.7500000175463265  0.49999995583223367  0.8750000570000128  1.0000
  Si  Si240     1.0  0.8750000272859718  0.49999998374145876  0.9375000057216377  1.0000
  O   O945      1.0  0.8292264754839244  0.6249999442031636  0.9549786266523697  1.0000
  O   O946      1.0  0.7499999775133402  0.6707736065405955  0.767478693793618  1.0000
  O   O947      1.0  0.875000065647517  0.7042263747506773  0.8924786980417201  1.0000
  O   O948      1.0  0.9207736212664612  0.6249998938654194  0.9549787235120246  1.0000
  O   O949      1.0  0.8749999422632093  0.5792263766132651  0.7950212503236826  1.0000
  O   O950      1.0  0.7957735857866314  0.6249999191964094  0.8575213390696733  1.0000
  O   O951      1.0  0.9542265012592284  0.6250001029172126  0.8575214076207612  1.0000
  O   O952      1.0  0.7500000809798538  0.5457736428516966  0.9200212454701148  1.0000
  O   O953      1.0  0.9542264136285353  0.4999999689584944  0.8299787639366695  1.0000
  O   O954      1.0  0.8749998276450704  0.5457736086856565  0.8924787946801713  1.0000
  O   O955      1.0  0.7499998816945418  0.5792264302425536  0.7674786715830427  1.0000
  O   O956      1.0  0.7957735449789285  0.5000000411885939  0.8299786931888514  1.0000
  O   O957      1.0  0.7499999980907851  0.7042263003140738  0.9200212386912529  1.0000
  O   O958      1.0  0.9207736003305128  0.4999999148826463  0.9825213699380454  1.0000
  O   O959      1.0  0.8292263898411962  0.5000001839591962  0.9825212446207302  1.0000
  O   O960      1.0  0.8750001581764457  0.6707736872139364  0.7950211845702762  1.0000
  Zr  Zr241     1.0  0.8750000226217275  0.8750000337326423  0.12499998598897614  1.0000
  Zr  Zr242     1.0  0.7500000253850392  0.8749999882649443  0.1875000746833907  1.0000
  Zr  Zr243     1.0  0.7499999156246665  0.7500000622147379  0.9999999394131047  1.0000
  Zr  Zr244     1.0  0.8749999372619632  0.7499999731310484  0.06250005391148726  1.0000
  Si  Si241     1.0  0.875000026052285  0.8750000049866785  1.4227899162016624e-09  1.0000
  Si  Si242     1.0  0.750000012825025  0.8750000084711992  0.06250001263678673  1.0000
  Si  Si243     1.0  0.7500000175463264  0.7499999558322337  0.1250000570000128  1.0000
  Si  Si244     1.0  0.8750000272859717  0.7499999837414587  0.1875000057216378  1.0000
  O   O961      1.0  0.8292264754839243  0.8749999442031638  0.20497862665236954  1.0000
  O   O962      1.0  0.7499999775133402  0.9207736065405953  0.017478693793618043  1.0000
  O   O963      1.0  0.8750000656475169  0.9542263747506773  0.1424786980417201  1.0000
  O   O964      1.0  0.9207736212664612  0.8749998938654194  0.20497872351202454  1.0000
  O   O965      1.0  0.8749999422632093  0.8292263766132651  0.04502125032368278  1.0000
  O   O966      1.0  0.7957735857866314  0.8749999191964094  0.10752133906967341  1.0000
  O   O967      1.0  0.9542265012592283  0.8750001029172128  0.1075214076207612  1.0000
  O   O968      1.0  0.7500000809798538  0.7957736428516965  0.17002124547011463  1.0000
  O   O969      1.0  0.9542264136285352  0.7499999689584945  0.07997876393666949  1.0000
  O   O970      1.0  0.8749998276450704  0.7957736086856566  0.14247879468017124  1.0000
  O   O971      1.0  0.7499998816945418  0.8292264302425536  0.017478671583042803  1.0000
  O   O972      1.0  0.7957735449789285  0.750000041188594  0.07997869318885145  1.0000
  O   O973      1.0  0.749999998090785  0.9542263003140738  0.17002123869125288  1.0000
  O   O974      1.0  0.9207736003305128  0.7499999148826462  0.23252136993804548  1.0000
  O   O975      1.0  0.8292263898411962  0.7500001839591963  0.2325212446207302  1.0000
  O   O976      1.0  0.8750001581764457  0.9207736872139364  0.045021184570276096  1.0000
  Zr  Zr245     1.0  0.8750000226217276  0.8750000337326423  0.37499998598897616  1.0000
  Zr  Zr246     1.0  0.7500000253850393  0.8749999882649442  0.4375000746833907  1.0000
  Zr  Zr247     1.0  0.7499999156246665  0.7500000622147378  0.24999993941310475  1.0000
  Zr  Zr248     1.0  0.8749999372619633  0.7499999731310485  0.3125000539114873  1.0000
  Si  Si245     1.0  0.875000026052285  0.8750000049866788  0.2500000014227899  1.0000
  Si  Si246     1.0  0.7500000128250252  0.8750000084711993  0.3125000126367867  1.0000
  Si  Si247     1.0  0.7500000175463265  0.7499999558322336  0.37500005700001277  1.0000
  Si  Si248     1.0  0.8750000272859718  0.7499999837414588  0.4375000057216378  1.0000
  O   O977      1.0  0.8292264754839245  0.8749999442031636  0.45497862665236954  1.0000
  O   O978      1.0  0.7499999775133402  0.9207736065405953  0.267478693793618  1.0000
  O   O979      1.0  0.875000065647517  0.9542263747506773  0.39247869804172003  1.0000
  O   O980      1.0  0.9207736212664612  0.8749998938654194  0.4549787235120245  1.0000
  O   O981      1.0  0.8749999422632093  0.8292263766132651  0.29502125032368276  1.0000
  O   O982      1.0  0.7957735857866314  0.8749999191964094  0.35752133906967337  1.0000
  O   O983      1.0  0.9542265012592284  0.8750001029172126  0.3575214076207612  1.0000
  O   O984      1.0  0.7500000809798538  0.7957736428516964  0.42002124547011466  1.0000
  O   O985      1.0  0.9542264136285353  0.7499999689584943  0.3299787639366695  1.0000
  O   O986      1.0  0.8749998276450704  0.7957736086856565  0.3924787946801712  1.0000
  O   O987      1.0  0.7499998816945418  0.8292264302425535  0.2674786715830428  1.0000
  O   O988      1.0  0.7957735449789285  0.7500000411885939  0.3299786931888515  1.0000
  O   O989      1.0  0.7499999980907851  0.9542263003140741  0.4200212386912529  1.0000
  O   O990      1.0  0.9207736003305128  0.7499999148826462  0.48252136993804556  1.0000
  O   O991      1.0  0.8292263898411962  0.7500001839591963  0.4825212446207302  1.0000
  O   O992      1.0  0.8750001581764459  0.9207736872139365  0.2950211845702761  1.0000
  Zr  Zr249     1.0  0.8750000226217275  0.8750000337326423  0.6249999859889761  1.0000
  Zr  Zr250     1.0  0.7500000253850392  0.8749999882649443  0.6875000746833907  1.0000
  Zr  Zr251     1.0  0.7499999156246665  0.7500000622147378  0.4999999394131047  1.0000
  Zr  Zr252     1.0  0.8749999372619632  0.7499999731310485  0.5625000539114873  1.0000
  Si  Si249     1.0  0.875000026052285  0.8750000049866785  0.5000000014227899  1.0000
  Si  Si250     1.0  0.750000012825025  0.8750000084711992  0.5625000126367867  1.0000
  Si  Si251     1.0  0.7500000175463264  0.7499999558322337  0.6250000570000128  1.0000
  Si  Si252     1.0  0.8750000272859717  0.7499999837414587  0.6875000057216378  1.0000
  O   O993      1.0  0.8292264754839244  0.8749999442031638  0.7049786266523695  1.0000
  O   O994      1.0  0.7499999775133402  0.9207736065405953  0.517478693793618  1.0000
  O   O995      1.0  0.8750000656475169  0.9542263747506772  0.64247869804172  1.0000
  O   O996      1.0  0.9207736212664612  0.8749998938654194  0.7049787235120245  1.0000
  O   O997      1.0  0.8749999422632093  0.8292263766132651  0.5450212503236828  1.0000
  O   O998      1.0  0.7957735857866314  0.8749999191964094  0.6075213390696733  1.0000
  O   O999      1.0  0.9542265012592283  0.8750001029172128  0.6075214076207611  1.0000
  O   O1000     1.0  0.7500000809798538  0.7957736428516965  0.6700212454701147  1.0000
  O   O1001     1.0  0.9542264136285352  0.7499999689584945  0.5799787639366695  1.0000
  O   O1002     1.0  0.8749998276450704  0.7957736086856566  0.6424787946801712  1.0000
  O   O1003     1.0  0.7499998816945418  0.8292264302425535  0.5174786715830427  1.0000
  O   O1004     1.0  0.7957735449789285  0.750000041188594  0.5799786931888514  1.0000
  O   O1005     1.0  0.749999998090785  0.9542263003140738  0.6700212386912529  1.0000
  O   O1006     1.0  0.9207736003305128  0.7499999148826462  0.7325213699380455  1.0000
  O   O1007     1.0  0.8292263898411962  0.7500001839591963  0.7325212446207302  1.0000
  O   O1008     1.0  0.8750001581764459  0.9207736872139364  0.545021184570276  1.0000
  Zr  Zr253     1.0  0.8750000226217276  0.8750000337326423  0.8749999859889761  1.0000
  Zr  Zr254     1.0  0.7500000253850393  0.8749999882649443  0.9375000746833908  1.0000
  Zr  Zr255     1.0  0.7499999156246665  0.7500000622147378  0.7499999394131047  1.0000
  Zr  Zr256     1.0  0.8749999372619633  0.7499999731310485  0.8125000539114872  1.0000
  Si  Si253     1.0  0.875000026052285  0.8750000049866788  0.7500000014227899  1.0000
  Si  Si254     1.0  0.7500000128250252  0.8750000084711992  0.8125000126367867  1.0000
  Si  Si255     1.0  0.7500000175463265  0.7499999558322336  0.8750000570000126  1.0000
  Si  Si256     1.0  0.8750000272859718  0.7499999837414587  0.9375000057216377  1.0000
  O   O1009     1.0  0.8292264754839244  0.8749999442031635  0.9549786266523697  1.0000
  O   O1010     1.0  0.7499999775133402  0.9207736065405953  0.767478693793618  1.0000
  O   O1011     1.0  0.875000065647517  0.9542263747506773  0.8924786980417201  1.0000
  O   O1012     1.0  0.9207736212664612  0.8749998938654195  0.9549787235120246  1.0000
  O   O1013     1.0  0.8749999422632093  0.8292263766132651  0.7950212503236826  1.0000
  O   O1014     1.0  0.7957735857866314  0.8749999191964094  0.8575213390696733  1.0000
  O   O1015     1.0  0.9542265012592284  0.8750001029172126  0.8575214076207612  1.0000
  O   O1016     1.0  0.7500000809798538  0.7957736428516964  0.9200212454701148  1.0000
  O   O1017     1.0  0.9542264136285353  0.7499999689584943  0.8299787639366695  1.0000
  O   O1018     1.0  0.8749998276450704  0.7957736086856565  0.8924787946801713  1.0000
  O   O1019     1.0  0.7499998816945418  0.8292264302425535  0.7674786715830427  1.0000
  O   O1020     1.0  0.7957735449789285  0.7500000411885939  0.8299786931888513  1.0000
  O   O1021     1.0  0.7499999980907851  0.9542263003140741  0.9200212386912529  1.0000
  O   O1022     1.0  0.9207736003305128  0.7499999148826462  0.9825213699380454  1.0000
  O   O1023     1.0  0.8292263898411962  0.7500001839591963  0.9825212446207302  1.0000
  O   O1024     1.0  0.8750001581764457  0.9207736872139364  0.7950211845702762  1.0000
